EN300-20814457-charged-primary_aminebackwards
  PyMOL2.3          3D                             0

 43 45  0  0  0  0  0  0  0  0999 V2000
   54.8403   52.3675   63.2723 C   0  0  0  0  0  0  0  0  0  0  0  0
   53.2653   50.8659   62.2332 N   0  0  0  0  0  0  0  0  0  0  0  0
   54.6916   47.4691   63.9788 O   0  0  0  0  0  0  0  0  0  0  0  0
   55.5916   44.5725   65.9329 C   0  0  0  0  0  0  0  0  0  0  0  0
   54.6477   49.3156   65.3518 N   0  0  0  0  0  0  0  0  0  0  0  0
   53.1989   44.8579   65.6926 C   0  0  0  0  0  0  0  0  0  0  0  0
   56.5744   42.3307   65.6201 N   0  0  0  0  0  0  0  0  0  0  0  0
   54.1948   42.6917   65.6236 C   0  0  0  0  0  0  0  0  0  0  0  0
   53.9194   52.0084   62.2307 C   0  0  0  0  0  0  0  0  0  0  0  0
   53.4505   49.9661   63.2795 C   0  0  0  0  0  0  0  0  0  0  0  0
   54.9574   51.5530   64.3848 C   0  0  0  0  0  0  0  0  0  0  0  0
   54.4538   45.4373   65.9066 C   0  0  0  0  0  0  0  0  0  0  0  0
   55.4582   43.2024   65.7038 C   0  0  0  0  0  0  0  0  0  0  0  0
   54.3400   50.2830   64.3325 C   0  0  0  0  0  0  0  0  0  0  0  0
   53.0732   43.5439   65.6213 C   0  0  0  0  0  0  0  0  0  0  0  0
   54.4759   47.8870   65.1511 C   0  0  0  0  0  0  0  0  0  0  0  0
   58.5241   43.2874   64.4360 C   0  0  0  0  0  0  0  0  0  0  0  0
   59.0953   42.0644   65.0620 C   0  0  0  0  0  0  0  0  0  0  0  0
   57.9312   42.8016   65.7827 C   0  0  0  0  0  0  0  0  0  0  0  0
   55.6931   52.0229   65.6231 C   0  0  0  0  0  0  0  0  0  0  0  0
   54.5496   46.8836   66.3475 C   0  0  0  0  0  0  0  0  0  0  0  0
   60.5534   41.8868   65.6514 C   0  0  0  0  0  0  0  0  0  0  0  0
   51.5128   42.8758   65.4217 Cl  0  0  0  0  0  0  0  0  0  0  0  0
   61.3728   41.3808   64.6819 F   0  0  0  0  0  0  0  0  0  0  0  0
   60.9588   43.1066   66.0712 F   0  0  0  0  0  0  0  0  0  0  0  0
   60.4538   40.9553   66.5863 F   0  0  0  0  0  0  0  0  0  0  0  0
   55.3371   53.3280   63.1718 H   0  0  0  0  0  0  0  0  0  0  0  0
   56.5695   45.0204   66.0901 H   0  0  0  0  0  0  0  0  0  0  0  0
   52.3084   45.4726   65.7625 H   0  0  0  0  0  0  0  0  0  0  0  0
   54.0487   41.6317   65.4460 H   0  0  0  0  0  0  0  0  0  0  0  0
   53.7544   52.6797   61.3920 H   0  0  0  0  0  0  0  0  0  0  0  0
   52.9025   49.0353   63.1926 H   0  0  0  0  0  0  0  0  0  0  0  0
   57.9061   43.1819   63.5440 H   0  0  0  0  0  0  0  0  0  0  0  0
   59.1558   44.1827   64.3513 H   0  0  0  0  0  0  0  0  0  0  0  0
   58.7381   41.1560   64.5780 H   0  0  0  0  0  0  0  0  0  0  0  0
   58.1295   43.2652   66.7483 H   0  0  0  0  0  0  0  0  0  0  0  0
   55.0045   52.1874   66.4526 H   0  0  0  0  0  0  0  0  0  0  0  0
   56.3863   51.2207   65.9009 H   0  0  0  0  0  0  0  0  0  0  0  0
   56.2934   52.9375   65.5326 H   0  0  0  0  0  0  0  0  0  0  0  0
   53.7782   47.0610   67.1024 H   0  0  0  0  0  0  0  0  0  0  0  0
   55.4887   47.0694   66.8805 H   0  0  0  0  0  0  0  0  0  0  0  0
   54.7596   49.4991   66.3489 H   0  0  0  0  0  0  0  0  0  0  0  0
   56.4293   41.3184   65.5421 H   0  0  0  0  0  0  0  0  0  0  0  0
  1  9  1  0  0  0  0
  1 11  1  0  0  0  0
  1 27  1  0  0  0  0
  4 12  1  0  0  0  0
  4 13  1  0  0  0  0
  4 28  1  0  0  0  0
  5 42  1  0  0  0  0
  6 12  1  0  0  0  0
  6 15  1  0  0  0  0
  6 29  1  0  0  0  0
  7 43  1  0  0  0  0
  8 13  1  0  0  0  0
  8 15  1  0  0  0  0
  8 30  1  0  0  0  0
  2  9  1  0  0  0  0
  9 31  1  0  0  0  0
  2 10  1  0  0  0  0
 10 14  1  0  0  0  0
 10 32  1  0  0  0  0
 11 14  1  0  0  0  0
 11 20  1  0  0  0  0
 12 21  1  0  0  0  0
  7 13  1  0  0  0  0
  5 14  1  0  0  0  0
 15 23  1  0  0  0  0
  3 16  1  0  0  0  0
  5 16  1  0  0  0  0
 16 21  1  0  0  0  0
 17 18  1  0  0  0  0
 17 19  1  0  0  0  0
 17 33  1  0  0  0  0
 17 34  1  0  0  0  0
 18 19  1  0  0  0  0
 18 22  1  0  0  0  0
 18 35  1  0  0  0  0
  7 19  1  0  0  0  0
 19 36  1  0  0  0  0
 20 37  1  0  0  0  0
 20 38  1  0  0  0  0
 20 39  1  0  0  0  0
 21 40  1  0  0  0  0
 21 41  1  0  0  0  0
 22 24  1  0  0  0  0
 22 25  1  0  0  0  0
 22 26  1  0  0  0  0
M  END
>  <pdb_header>
REMARK   1 CREATED WITH MDTraj 1.9.4, 2020-08-14
CRYST1   96.906   96.906   96.906  90.00  90.00  90.00 P 1           1 


$$$$
EN300-59553-charged-primary_aminebackwards
  PyMOL2.3          3D                             0

 47 49  0  0  0  0  0  0  0  0999 V2000
   53.3882   50.6799   63.0613 C   0  0  0  0  0  0  0  0  0  0  0  0
   50.9934   50.7910   63.3602 N   0  0  0  0  0  0  0  0  0  0  0  0
   50.1730   47.9546   66.4382 O   0  0  0  0  0  0  0  0  0  0  0  0
   53.7789   45.1468   66.9956 C   0  0  0  0  0  0  0  0  0  0  0  0
   52.3410   48.4454   65.8401 N   0  0  0  0  0  0  0  0  0  0  0  0
   56.1994   45.4114   63.8544 O   0  0  0  0  0  0  0  0  0  0  0  0
   51.5891   44.4038   66.1942 C   0  0  0  0  0  0  0  0  0  0  0  0
   55.7016   44.0072   66.2518 N   0  0  0  0  0  0  0  0  0  0  0  0
   53.5627   43.1786   65.5584 C   0  0  0  0  0  0  0  0  0  0  0  0
   52.1134   51.1424   62.7542 C   0  0  0  0  0  0  0  0  0  0  0  0
   51.0969   49.9177   64.3931 C   0  0  0  0  0  0  0  0  0  0  0  0
   53.4304   49.7081   64.1561 C   0  0  0  0  0  0  0  0  0  0  0  0
   52.4133   45.3374   66.9733 C   0  0  0  0  0  0  0  0  0  0  0  0
   54.3249   44.0433   66.3345 C   0  0  0  0  0  0  0  0  0  0  0  0
   52.3143   49.3248   64.7813 C   0  0  0  0  0  0  0  0  0  0  0  0
   52.2257   43.4378   65.4363 C   0  0  0  0  0  0  0  0  0  0  0  0
   51.3884   47.7569   66.6239 C   0  0  0  0  0  0  0  0  0  0  0  0
   58.8059   43.1437   64.5264 C   0  0  0  0  0  0  0  0  0  0  0  0
   57.9597   43.3374   65.6788 C   0  0  0  0  0  0  0  0  0  0  0  0
   58.0391   43.7961   63.4098 C   0  0  0  0  0  0  0  0  0  0  0  0
   56.5122   43.3222   65.2492 C   0  0  0  0  0  0  0  0  0  0  0  0
   56.5742   44.0309   63.8802 C   0  0  0  0  0  0  0  0  0  0  0  0
   54.7724   49.2091   64.5766 C   0  0  0  0  0  0  0  0  0  0  0  0
   51.8467   46.6320   67.6066 C   0  0  0  0  0  0  0  0  0  0  0  0
   51.2715   42.5187   64.3174 Cl  0  0  0  0  0  0  0  0  0  0  0  0
   54.2507   51.0877   62.5474 H   0  0  0  0  0  0  0  0  0  0  0  0
   54.3211   45.9478   67.4864 H   0  0  0  0  0  0  0  0  0  0  0  0
   50.5121   44.5212   66.2534 H   0  0  0  0  0  0  0  0  0  0  0  0
   54.1077   42.5162   64.8898 H   0  0  0  0  0  0  0  0  0  0  0  0
   52.1434   51.8694   61.9516 H   0  0  0  0  0  0  0  0  0  0  0  0
   50.1018   49.7229   64.7920 H   0  0  0  0  0  0  0  0  0  0  0  0
   59.8598   43.4158   64.6642 H   0  0  0  0  0  0  0  0  0  0  0  0
   58.7929   42.0668   64.3001 H   0  0  0  0  0  0  0  0  0  0  0  0
   58.1621   42.5427   66.4015 H   0  0  0  0  0  0  0  0  0  0  0  0
   58.1999   44.3041   66.1398 H   0  0  0  0  0  0  0  0  0  0  0  0
   58.5220   44.7049   63.0313 H   0  0  0  0  0  0  0  0  0  0  0  0
   58.1530   43.1022   62.5719 H   0  0  0  0  0  0  0  0  0  0  0  0
   56.1940   42.2958   65.0682 H   0  0  0  0  0  0  0  0  0  0  0  0
   55.8049   43.6011   63.2279 H   0  0  0  0  0  0  0  0  0  0  0  0
   55.2401   49.8118   65.3564 H   0  0  0  0  0  0  0  0  0  0  0  0
   54.6832   48.1847   64.9405 H   0  0  0  0  0  0  0  0  0  0  0  0
   55.4405   49.1777   63.7070 H   0  0  0  0  0  0  0  0  0  0  0  0
   50.8827   46.3448   68.0491 H   0  0  0  0  0  0  0  0  0  0  0  0
   52.4597   47.0658   68.3951 H   0  0  0  0  0  0  0  0  0  0  0  0
   53.3256   48.2837   66.0373 H   0  0  0  0  0  0  0  0  0  0  0  0
   56.1446   44.7537   66.7758 H   0  0  0  0  0  0  0  0  0  0  0  0
   56.1489   45.6669   62.9109 H   0  0  0  0  0  0  0  0  0  0  0  0
  1 10  1  0  0  0  0
  1 12  1  0  0  0  0
  1 26  1  0  0  0  0
  4 13  1  0  0  0  0
  4 14  1  0  0  0  0
  4 27  1  0  0  0  0
  5 45  1  0  0  0  0
  6 47  1  0  0  0  0
  7 13  1  0  0  0  0
  7 16  1  0  0  0  0
  7 28  1  0  0  0  0
  8 46  1  0  0  0  0
  9 14  1  0  0  0  0
  9 16  1  0  0  0  0
  9 29  1  0  0  0  0
  2 10  1  0  0  0  0
 10 30  1  0  0  0  0
  2 11  1  0  0  0  0
 11 15  1  0  0  0  0
 11 31  1  0  0  0  0
 12 15  1  0  0  0  0
 12 23  1  0  0  0  0
 13 24  1  0  0  0  0
  8 14  1  0  0  0  0
  5 15  1  0  0  0  0
 16 25  1  0  0  0  0
  3 17  1  0  0  0  0
  5 17  1  0  0  0  0
 17 24  1  0  0  0  0
 18 19  1  0  0  0  0
 18 20  1  0  0  0  0
 18 32  1  0  0  0  0
 18 33  1  0  0  0  0
 19 21  1  0  0  0  0
 19 34  1  0  0  0  0
 19 35  1  0  0  0  0
 20 22  1  0  0  0  0
 20 36  1  0  0  0  0
 20 37  1  0  0  0  0
  8 21  1  0  0  0  0
 21 22  1  0  0  0  0
 21 38  1  0  0  0  0
  6 22  1  0  0  0  0
 22 39  1  0  0  0  0
 23 40  1  0  0  0  0
 23 41  1  0  0  0  0
 23 42  1  0  0  0  0
 24 43  1  0  0  0  0
 24 44  1  0  0  0  0
M  END
>  <pdb_header>
REMARK   1 CREATED WITH MDTraj 1.9.4, 2020-08-14
CRYST1   96.960   96.960   96.960  90.00  90.00  90.00 P 1           1 


$$$$
EN300-6734624-charged-primary_aminebackwards
  PyMOL2.3          3D                             0

 47 49  0  0  0  0  0  0  0  0999 V2000
   53.5838   52.0551   63.5112 C   0  0  0  0  0  0  0  0  0  0  0  0
   52.5652   50.5901   61.9166 N   0  0  0  0  0  0  0  0  0  0  0  0
   53.5112   47.2244   64.2606 O   0  0  0  0  0  0  0  0  0  0  0  0
   53.6668   44.6120   65.5705 C   0  0  0  0  0  0  0  0  0  0  0  0
   52.4312   48.9518   65.2921 N   0  0  0  0  0  0  0  0  0  0  0  0
   56.8803   40.8912   64.3357 O   0  0  0  0  0  0  0  0  0  0  0  0
   51.3203   44.3752   65.4512 C   0  0  0  0  0  0  0  0  0  0  0  0
   55.0387   42.7362   64.8231 N   0  0  0  0  0  0  0  0  0  0  0  0
   52.6984   42.5396   64.8937 C   0  0  0  0  0  0  0  0  0  0  0  0
   53.1749   51.7696   62.2161 C   0  0  0  0  0  0  0  0  0  0  0  0
   52.3719   49.7214   62.9297 C   0  0  0  0  0  0  0  0  0  0  0  0
   53.3506   51.1226   64.5813 C   0  0  0  0  0  0  0  0  0  0  0  0
   52.4294   45.1334   65.7656 C   0  0  0  0  0  0  0  0  0  0  0  0
   53.7959   43.3267   65.0691 C   0  0  0  0  0  0  0  0  0  0  0  0
   52.6971   49.9617   64.3246 C   0  0  0  0  0  0  0  0  0  0  0  0
   51.4487   43.0709   65.0228 C   0  0  0  0  0  0  0  0  0  0  0  0
   52.8181   47.6080   65.2554 C   0  0  0  0  0  0  0  0  0  0  0  0
   56.5694   44.3617   63.8891 C   0  0  0  0  0  0  0  0  0  0  0  0
   57.6953   43.7641   63.0544 C   0  0  0  0  0  0  0  0  0  0  0  0
   56.3696   43.3183   64.9621 C   0  0  0  0  0  0  0  0  0  0  0  0
   57.4522   42.2074   64.8130 C   0  0  0  0  0  0  0  0  0  0  0  0
   58.4725   42.7148   63.8250 C   0  0  0  0  0  0  0  0  0  0  0  0
   53.8716   51.4929   65.9639 C   0  0  0  0  0  0  0  0  0  0  0  0
   52.2330   46.5574   66.2383 C   0  0  0  0  0  0  0  0  0  0  0  0
   50.0201   42.1659   64.6714 Cl  0  0  0  0  0  0  0  0  0  0  0  0
   59.0223   41.7109   63.1255 F   0  0  0  0  0  0  0  0  0  0  0  0
   59.4768   43.3709   64.5225 F   0  0  0  0  0  0  0  0  0  0  0  0
   54.0738   52.9936   63.7345 H   0  0  0  0  0  0  0  0  0  0  0  0
   54.4793   45.3073   65.7577 H   0  0  0  0  0  0  0  0  0  0  0  0
   50.3375   44.8403   65.5298 H   0  0  0  0  0  0  0  0  0  0  0  0
   52.7127   41.5096   64.5401 H   0  0  0  0  0  0  0  0  0  0  0  0
   53.4124   52.4263   61.3916 H   0  0  0  0  0  0  0  0  0  0  0  0
   51.8242   48.8107   62.7078 H   0  0  0  0  0  0  0  0  0  0  0  0
   56.9267   45.3194   64.2764 H   0  0  0  0  0  0  0  0  0  0  0  0
   55.7996   44.4866   63.1278 H   0  0  0  0  0  0  0  0  0  0  0  0
   57.1413   43.2705   62.2431 H   0  0  0  0  0  0  0  0  0  0  0  0
   58.4293   44.4905   62.7015 H   0  0  0  0  0  0  0  0  0  0  0  0
   56.4990   43.8751   65.8998 H   0  0  0  0  0  0  0  0  0  0  0  0
   57.9102   42.0404   65.7988 H   0  0  0  0  0  0  0  0  0  0  0  0
   53.8226   52.5850   65.9816 H   0  0  0  0  0  0  0  0  0  0  0  0
   53.2847   51.0263   66.7638 H   0  0  0  0  0  0  0  0  0  0  0  0
   54.9011   51.1384   65.9858 H   0  0  0  0  0  0  0  0  0  0  0  0
   51.1660   46.7650   66.3119 H   0  0  0  0  0  0  0  0  0  0  0  0
   52.7409   46.6459   67.2063 H   0  0  0  0  0  0  0  0  0  0  0  0
   51.7606   49.0654   66.0510 H   0  0  0  0  0  0  0  0  0  0  0  0
   54.9531   41.7392   64.6402 H   0  0  0  0  0  0  0  0  0  0  0  0
   56.1844   40.5504   64.9156 H   0  0  0  0  0  0  0  0  0  0  0  0
  1 10  1  0  0  0  0
  1 12  1  0  0  0  0
  1 28  1  0  0  0  0
  4 13  1  0  0  0  0
  4 14  1  0  0  0  0
  4 29  1  0  0  0  0
  5 45  1  0  0  0  0
  6 47  1  0  0  0  0
  7 13  1  0  0  0  0
  7 16  1  0  0  0  0
  7 30  1  0  0  0  0
  8 46  1  0  0  0  0
  9 14  1  0  0  0  0
  9 16  1  0  0  0  0
  9 31  1  0  0  0  0
  2 10  1  0  0  0  0
 10 32  1  0  0  0  0
  2 11  1  0  0  0  0
 11 15  1  0  0  0  0
 11 33  1  0  0  0  0
 12 15  1  0  0  0  0
 12 23  1  0  0  0  0
 13 24  1  0  0  0  0
  8 14  1  0  0  0  0
  5 15  1  0  0  0  0
 16 25  1  0  0  0  0
  3 17  1  0  0  0  0
  5 17  1  0  0  0  0
 17 24  1  0  0  0  0
 18 19  1  0  0  0  0
 18 20  1  0  0  0  0
 18 34  1  0  0  0  0
 18 35  1  0  0  0  0
 19 22  1  0  0  0  0
 19 36  1  0  0  0  0
 19 37  1  0  0  0  0
  8 20  1  0  0  0  0
 20 21  1  0  0  0  0
 20 38  1  0  0  0  0
  6 21  1  0  0  0  0
 21 22  1  0  0  0  0
 21 39  1  0  0  0  0
 22 26  1  0  0  0  0
 22 27  1  0  0  0  0
 23 40  1  0  0  0  0
 23 41  1  0  0  0  0
 23 42  1  0  0  0  0
 24 43  1  0  0  0  0
 24 44  1  0  0  0  0
M  END
>  <pdb_header>
REMARK   1 CREATED WITH MDTraj 1.9.4, 2020-08-14
CRYST1   96.957   96.957   96.957  90.00  90.00  90.00 P 1           1 


$$$$
EN300-60314-charged-primary_aminebackwards
  PyMOL2.3          3D                             0

 47 49  0  0  0  0  0  0  0  0999 V2000
   53.2529   52.6638   63.8806 C   0  0  0  0  0  0  0  0  0  0  0  0
   52.9592   51.0636   62.0388 N   0  0  0  0  0  0  0  0  0  0  0  0
   53.6168   47.6462   64.1072 O   0  0  0  0  0  0  0  0  0  0  0  0
   54.2044   45.0480   66.0905 C   0  0  0  0  0  0  0  0  0  0  0  0
   52.6367   49.3395   65.2719 N   0  0  0  0  0  0  0  0  0  0  0  0
   56.0549   42.5945   62.9800 O   0  0  0  0  0  0  0  0  0  0  0  0
   52.0008   44.7773   65.3495 C   0  0  0  0  0  0  0  0  0  0  0  0
   55.9325   43.6080   65.7350 N   0  0  0  0  0  0  0  0  0  0  0  0
   53.5959   42.9537   65.1384 C   0  0  0  0  0  0  0  0  0  0  0  0
   53.3252   52.3155   62.5173 C   0  0  0  0  0  0  0  0  0  0  0  0
   52.7269   50.1184   62.9633 C   0  0  0  0  0  0  0  0  0  0  0  0
   53.0307   51.7237   64.8135 C   0  0  0  0  0  0  0  0  0  0  0  0
   52.9659   45.5952   65.8864 C   0  0  0  0  0  0  0  0  0  0  0  0
   54.5754   43.8035   65.7095 C   0  0  0  0  0  0  0  0  0  0  0  0
   52.7943   50.3780   64.3796 C   0  0  0  0  0  0  0  0  0  0  0  0
   52.2768   43.4546   64.9995 C   0  0  0  0  0  0  0  0  0  0  0  0
   53.0010   48.0347   65.1249 C   0  0  0  0  0  0  0  0  0  0  0  0
   58.9815   43.1080   65.1339 C   0  0  0  0  0  0  0  0  0  0  0  0
   58.0177   42.4445   66.1681 C   0  0  0  0  0  0  0  0  0  0  0  0
   58.2008   43.1905   63.8160 C   0  0  0  0  0  0  0  0  0  0  0  0
   56.6867   42.4272   65.4020 C   0  0  0  0  0  0  0  0  0  0  0  0
   57.0434   42.2586   63.9444 C   0  0  0  0  0  0  0  0  0  0  0  0
   53.1474   52.0419   66.2771 C   0  0  0  0  0  0  0  0  0  0  0  0
   52.6571   47.0211   66.2124 C   0  0  0  0  0  0  0  0  0  0  0  0
   51.1028   42.4080   64.3549 Cl  0  0  0  0  0  0  0  0  0  0  0  0
   53.4761   53.6824   64.1751 H   0  0  0  0  0  0  0  0  0  0  0  0
   54.9983   45.6719   66.5007 H   0  0  0  0  0  0  0  0  0  0  0  0
   51.0602   45.2827   65.1466 H   0  0  0  0  0  0  0  0  0  0  0  0
   53.7441   41.9612   64.7159 H   0  0  0  0  0  0  0  0  0  0  0  0
   53.6470   53.0504   61.7917 H   0  0  0  0  0  0  0  0  0  0  0  0
   52.3622   49.1477   62.6429 H   0  0  0  0  0  0  0  0  0  0  0  0
   59.2746   44.0892   65.5097 H   0  0  0  0  0  0  0  0  0  0  0  0
   59.8162   42.4264   64.9677 H   0  0  0  0  0  0  0  0  0  0  0  0
   58.3921   41.4644   66.4965 H   0  0  0  0  0  0  0  0  0  0  0  0
   57.9561   43.0853   67.0564 H   0  0  0  0  0  0  0  0  0  0  0  0
   57.8918   44.2405   63.7451 H   0  0  0  0  0  0  0  0  0  0  0  0
   58.7921   42.9178   62.9343 H   0  0  0  0  0  0  0  0  0  0  0  0
   56.0679   41.6068   65.8012 H   0  0  0  0  0  0  0  0  0  0  0  0
   57.2994   41.2019   63.7873 H   0  0  0  0  0  0  0  0  0  0  0  0
   53.6482   51.2378   66.8204 H   0  0  0  0  0  0  0  0  0  0  0  0
   53.6106   53.0351   66.3719 H   0  0  0  0  0  0  0  0  0  0  0  0
   52.1325   52.0497   66.6791 H   0  0  0  0  0  0  0  0  0  0  0  0
   51.6029   47.2324   66.3716 H   0  0  0  0  0  0  0  0  0  0  0  0
   53.1071   47.3645   67.1449 H   0  0  0  0  0  0  0  0  0  0  0  0
   52.3965   49.5477   66.2352 H   0  0  0  0  0  0  0  0  0  0  0  0
   56.4612   44.3283   66.2137 H   0  0  0  0  0  0  0  0  0  0  0  0
   55.9853   43.5593   62.8410 H   0  0  0  0  0  0  0  0  0  0  0  0
  1 10  1  0  0  0  0
  1 12  1  0  0  0  0
  1 26  1  0  0  0  0
  4 13  1  0  0  0  0
  4 14  1  0  0  0  0
  4 27  1  0  0  0  0
  5 45  1  0  0  0  0
  6 47  1  0  0  0  0
  7 13  1  0  0  0  0
  7 16  1  0  0  0  0
  7 28  1  0  0  0  0
  8 46  1  0  0  0  0
  9 14  1  0  0  0  0
  9 16  1  0  0  0  0
  9 29  1  0  0  0  0
  2 10  1  0  0  0  0
 10 30  1  0  0  0  0
  2 11  1  0  0  0  0
 11 15  1  0  0  0  0
 11 31  1  0  0  0  0
 12 15  1  0  0  0  0
 12 23  1  0  0  0  0
 13 24  1  0  0  0  0
  8 14  1  0  0  0  0
  5 15  1  0  0  0  0
 16 25  1  0  0  0  0
  3 17  1  0  0  0  0
  5 17  1  0  0  0  0
 17 24  1  0  0  0  0
 18 19  1  0  0  0  0
 18 20  1  0  0  0  0
 18 32  1  0  0  0  0
 18 33  1  0  0  0  0
 19 21  1  0  0  0  0
 19 34  1  0  0  0  0
 19 35  1  0  0  0  0
 20 22  1  0  0  0  0
 20 36  1  0  0  0  0
 20 37  1  0  0  0  0
  8 21  1  0  0  0  0
 21 22  1  0  0  0  0
 21 38  1  0  0  0  0
  6 22  1  0  0  0  0
 22 39  1  0  0  0  0
 23 40  1  0  0  0  0
 23 41  1  0  0  0  0
 23 42  1  0  0  0  0
 24 43  1  0  0  0  0
 24 44  1  0  0  0  0
M  END
>  <pdb_header>
REMARK   1 CREATED WITH MDTraj 1.9.4, 2020-08-14
CRYST1   96.948   96.948   96.948  90.00  90.00  90.00 P 1           1 


$$$$
EN300-2009339-charged-primary_aminebackwards
  PyMOL2.3          3D                             0

 54 57  0  0  0  0  0  0  0  0999 V2000
   54.4221   51.9721   62.4429 C   0  0  0  0  0  0  0  0  0  0  0  0
   52.8268   50.4099   61.6007 N   0  0  0  0  0  0  0  0  0  0  0  0
   54.6670   46.9908   63.5330 O   0  0  0  0  0  0  0  0  0  0  0  0
   60.1867   42.4485   65.9209 S   0  0  0  0  0  0  0  0  0  0  0  0
   55.7645   44.5646   66.1437 C   0  0  0  0  0  0  0  0  0  0  0  0
   54.4247   48.9302   64.6436 N   0  0  0  0  0  0  0  0  0  0  0  0
   60.6453   41.6437   64.7705 O   0  0  0  0  0  0  0  0  0  0  0  0
   53.5423   44.6203   65.2051 C   0  0  0  0  0  0  0  0  0  0  0  0
   57.0121   42.4429   65.9897 N   0  0  0  0  0  0  0  0  0  0  0  0
   61.3909   42.9304   66.6422 O   0  0  0  0  0  0  0  0  0  0  0  0
   54.7502   42.4546   65.3160 C   0  0  0  0  0  0  0  0  0  0  0  0
   60.0794   45.8416   63.8122 O   0  0  0  0  0  0  0  0  0  0  0  0
   53.4434   51.6274   61.5760 C   0  0  0  0  0  0  0  0  0  0  0  0
   53.2625   49.4842   62.4995 C   0  0  0  0  0  0  0  0  0  0  0  0
   54.8855   51.0530   63.3990 C   0  0  0  0  0  0  0  0  0  0  0  0
   54.6665   45.3134   65.7890 C   0  0  0  0  0  0  0  0  0  0  0  0
   55.8282   43.1807   65.9637 C   0  0  0  0  0  0  0  0  0  0  0  0
   54.2421   49.7790   63.4885 C   0  0  0  0  0  0  0  0  0  0  0  0
   53.5859   43.1737   64.9897 C   0  0  0  0  0  0  0  0  0  0  0  0
   54.5273   47.5522   64.6517 C   0  0  0  0  0  0  0  0  0  0  0  0
   58.6045   43.7654   64.1201 C   0  0  0  0  0  0  0  0  0  0  0  0
   59.5779   45.1160   66.0767 C   0  0  0  0  0  0  0  0  0  0  0  0
   59.5998   44.5568   63.2677 C   0  0  0  0  0  0  0  0  0  0  0  0
   60.6407   45.6529   65.1008 C   0  0  0  0  0  0  0  0  0  0  0  0
   59.1320   41.6304   66.9620 C   0  0  0  0  0  0  0  0  0  0  0  0
   58.2347   42.8584   66.6034 C   0  0  0  0  0  0  0  0  0  0  0  0
   59.0515   43.7524   65.5970 C   0  0  0  0  0  0  0  0  0  0  0  0
   55.9876   51.4394   64.3934 C   0  0  0  0  0  0  0  0  0  0  0  0
   54.5494   46.8310   65.9881 C   0  0  0  0  0  0  0  0  0  0  0  0
   52.0771   42.2719   64.6504 Cl  0  0  0  0  0  0  0  0  0  0  0  0
   54.7916   52.9951   62.4291 H   0  0  0  0  0  0  0  0  0  0  0  0
   56.6026   45.0890   66.5905 H   0  0  0  0  0  0  0  0  0  0  0  0
   52.6167   45.0741   64.8692 H   0  0  0  0  0  0  0  0  0  0  0  0
   54.8054   41.3886   65.1645 H   0  0  0  0  0  0  0  0  0  0  0  0
   53.1538   52.3361   60.8042 H   0  0  0  0  0  0  0  0  0  0  0  0
   52.7571   48.5212   62.5406 H   0  0  0  0  0  0  0  0  0  0  0  0
   57.6576   44.3067   64.0651 H   0  0  0  0  0  0  0  0  0  0  0  0
   58.3531   42.7512   63.7794 H   0  0  0  0  0  0  0  0  0  0  0  0
   60.0196   45.0525   67.0808 H   0  0  0  0  0  0  0  0  0  0  0  0
   58.7857   45.8683   66.1076 H   0  0  0  0  0  0  0  0  0  0  0  0
   60.4031   43.8300   63.0891 H   0  0  0  0  0  0  0  0  0  0  0  0
   59.1368   44.7746   62.3015 H   0  0  0  0  0  0  0  0  0  0  0  0
   60.9938   46.6245   65.4478 H   0  0  0  0  0  0  0  0  0  0  0  0
   61.5169   44.9956   65.1475 H   0  0  0  0  0  0  0  0  0  0  0  0
   58.6708   40.6848   66.6641 H   0  0  0  0  0  0  0  0  0  0  0  0
   59.5441   41.6656   67.9829 H   0  0  0  0  0  0  0  0  0  0  0  0
   57.9659   43.3786   67.5294 H   0  0  0  0  0  0  0  0  0  0  0  0
   55.5049   51.6407   65.3512 H   0  0  0  0  0  0  0  0  0  0  0  0
   56.6790   50.5896   64.4120 H   0  0  0  0  0  0  0  0  0  0  0  0
   56.5764   52.2763   63.9970 H   0  0  0  0  0  0  0  0  0  0  0  0
   53.5637   47.0226   66.4350 H   0  0  0  0  0  0  0  0  0  0  0  0
   55.3657   47.2094   66.6105 H   0  0  0  0  0  0  0  0  0  0  0  0
   54.5417   49.3890   65.5438 H   0  0  0  0  0  0  0  0  0  0  0  0
   56.8824   41.4629   65.7397 H   0  0  0  0  0  0  0  0  0  0  0  0
  1 13  1  0  0  0  0
  1 15  1  0  0  0  0
  1 31  1  0  0  0  0
  5 16  1  0  0  0  0
  5 17  1  0  0  0  0
  5 32  1  0  0  0  0
  6 53  1  0  0  0  0
  4  7  1  0  0  0  0
  8 16  1  0  0  0  0
  8 19  1  0  0  0  0
  8 33  1  0  0  0  0
  9 54  1  0  0  0  0
  4 10  1  0  0  0  0
 11 17  1  0  0  0  0
 11 19  1  0  0  0  0
 11 34  1  0  0  0  0
  2 13  1  0  0  0  0
 13 35  1  0  0  0  0
  2 14  1  0  0  0  0
 14 18  1  0  0  0  0
 14 36  1  0  0  0  0
 15 18  1  0  0  0  0
 15 28  1  0  0  0  0
 16 29  1  0  0  0  0
  9 17  1  0  0  0  0
  6 18  1  0  0  0  0
 19 30  1  0  0  0  0
  3 20  1  0  0  0  0
  6 20  1  0  0  0  0
 20 29  1  0  0  0  0
 21 23  1  0  0  0  0
 21 27  1  0  0  0  0
 21 37  1  0  0  0  0
 21 38  1  0  0  0  0
 22 24  1  0  0  0  0
 22 27  1  0  0  0  0
 22 39  1  0  0  0  0
 22 40  1  0  0  0  0
 12 23  1  0  0  0  0
 23 41  1  0  0  0  0
 23 42  1  0  0  0  0
 12 24  1  0  0  0  0
 24 43  1  0  0  0  0
 24 44  1  0  0  0  0
  4 25  1  0  0  0  0
 25 26  1  0  0  0  0
 25 45  1  0  0  0  0
 25 46  1  0  0  0  0
  9 26  1  0  0  0  0
 26 27  1  0  0  0  0
 26 47  1  0  0  0  0
  4 27  1  0  0  0  0
 28 48  1  0  0  0  0
 28 49  1  0  0  0  0
 28 50  1  0  0  0  0
 29 51  1  0  0  0  0
 29 52  1  0  0  0  0
M  END
>  <pdb_header>
REMARK   1 CREATED WITH MDTraj 1.9.4, 2020-08-14
CRYST1   96.901   96.901   96.901  90.00  90.00  90.00 P 1           1 


$$$$
EN300-6486612-charged-primary_aminebackwards
  PyMOL2.3          3D                             0

 56 59  0  0  0  0  0  0  0  0999 V2000
   55.1049   52.1832   62.1632 C   0  0  0  0  0  0  0  0  0  0  0  0
   52.9317   51.4466   61.5063 N   0  0  0  0  0  0  0  0  0  0  0  0
   51.5180   49.7204   64.9417 O   0  0  0  0  0  0  0  0  0  0  0  0
   58.0610   43.5306   63.8861 S   0  0  0  0  0  0  0  0  0  0  0  0
   54.0089   46.9283   65.6428 C   0  0  0  0  0  0  0  0  0  0  0  0
   53.7820   50.1686   64.9891 N   0  0  0  0  0  0  0  0  0  0  0  0
   59.0389   44.3428   63.1278 O   0  0  0  0  0  0  0  0  0  0  0  0
   52.0452   46.3189   66.8033 C   0  0  0  0  0  0  0  0  0  0  0  0
   55.2389   45.2687   64.4311 N   0  0  0  0  0  0  0  0  0  0  0  0
   58.4929   42.1566   64.0279 O   0  0  0  0  0  0  0  0  0  0  0  0
   53.2710   44.5577   65.6784 C   0  0  0  0  0  0  0  0  0  0  0  0
   54.0738   52.1480   61.2285 C   0  0  0  0  0  0  0  0  0  0  0  0
   52.8760   50.7964   62.7159 C   0  0  0  0  0  0  0  0  0  0  0  0
   55.0719   51.6320   63.4507 C   0  0  0  0  0  0  0  0  0  0  0  0
   52.9323   47.3063   66.4495 C   0  0  0  0  0  0  0  0  0  0  0  0
   54.1648   45.5660   65.2575 C   0  0  0  0  0  0  0  0  0  0  0  0
   53.8971   50.8691   63.7342 C   0  0  0  0  0  0  0  0  0  0  0  0
   52.2111   45.0290   66.4847 C   0  0  0  0  0  0  0  0  0  0  0  0
   52.6074   49.6798   65.5683 C   0  0  0  0  0  0  0  0  0  0  0  0
   58.9811   44.5990   67.7053 C   0  0  0  0  0  0  0  0  0  0  0  0
   59.1269   45.4998   66.4744 C   0  0  0  0  0  0  0  0  0  0  0  0
   58.5244   43.2107   67.2548 C   0  0  0  0  0  0  0  0  0  0  0  0
   57.8171   45.5212   65.6903 C   0  0  0  0  0  0  0  0  0  0  0  0
   57.1977   43.3319   66.5925 C   0  0  0  0  0  0  0  0  0  0  0  0
   56.5854   43.6644   62.9433 C   0  0  0  0  0  0  0  0  0  0  0  0
   56.0348   44.0830   64.4198 C   0  0  0  0  0  0  0  0  0  0  0  0
   57.2867   44.1656   65.3275 C   0  0  0  0  0  0  0  0  0  0  0  0
   56.1523   51.6877   64.4682 C   0  0  0  0  0  0  0  0  0  0  0  0
   52.7427   48.8223   66.8289 C   0  0  0  0  0  0  0  0  0  0  0  0
   51.0382   43.9325   66.9811 Cl  0  0  0  0  0  0  0  0  0  0  0  0
   56.0728   52.6233   61.9038 H   0  0  0  0  0  0  0  0  0  0  0  0
   54.7431   47.6895   65.3875 H   0  0  0  0  0  0  0  0  0  0  0  0
   51.2457   46.5924   67.4770 H   0  0  0  0  0  0  0  0  0  0  0  0
   53.3768   43.5069   65.4585 H   0  0  0  0  0  0  0  0  0  0  0  0
   54.2181   52.6356   60.2613 H   0  0  0  0  0  0  0  0  0  0  0  0
   51.9987   50.1598   62.8648 H   0  0  0  0  0  0  0  0  0  0  0  0
   60.0172   44.5283   68.0521 H   0  0  0  0  0  0  0  0  0  0  0  0
   58.2065   44.9709   68.3930 H   0  0  0  0  0  0  0  0  0  0  0  0
   59.3123   46.5597   66.6952 H   0  0  0  0  0  0  0  0  0  0  0  0
   59.9576   45.2400   65.8126 H   0  0  0  0  0  0  0  0  0  0  0  0
   59.2025   42.8364   66.4777 H   0  0  0  0  0  0  0  0  0  0  0  0
   58.5729   42.5406   68.1307 H   0  0  0  0  0  0  0  0  0  0  0  0
   57.0144   46.0515   66.1925 H   0  0  0  0  0  0  0  0  0  0  0  0
   57.9558   46.0645   64.7488 H   0  0  0  0  0  0  0  0  0  0  0  0
   56.8772   42.3028   66.4541 H   0  0  0  0  0  0  0  0  0  0  0  0
   56.5208   43.7830   67.3281 H   0  0  0  0  0  0  0  0  0  0  0  0
   56.2231   42.7219   62.5197 H   0  0  0  0  0  0  0  0  0  0  0  0
   56.6237   44.5158   62.2608 H   0  0  0  0  0  0  0  0  0  0  0  0
   55.3980   43.2631   64.7573 H   0  0  0  0  0  0  0  0  0  0  0  0
   56.7944   50.7960   64.4516 H   0  0  0  0  0  0  0  0  0  0  0  0
   56.8437   52.5082   64.2733 H   0  0  0  0  0  0  0  0  0  0  0  0
   55.8123   51.8037   65.5005 H   0  0  0  0  0  0  0  0  0  0  0  0
   51.8004   48.9633   67.3740 H   0  0  0  0  0  0  0  0  0  0  0  0
   53.5944   49.2029   67.4131 H   0  0  0  0  0  0  0  0  0  0  0  0
   54.5380   50.2871   65.6647 H   0  0  0  0  0  0  0  0  0  0  0  0
   55.7289   46.0793   64.0432 H   0  0  0  0  0  0  0  0  0  0  0  0
  1 12  1  0  0  0  0
  1 14  1  0  0  0  0
  1 31  1  0  0  0  0
  5 15  1  0  0  0  0
  5 16  1  0  0  0  0
  5 32  1  0  0  0  0
  6 55  1  0  0  0  0
  4  7  1  0  0  0  0
  8 15  1  0  0  0  0
  8 18  1  0  0  0  0
  8 33  1  0  0  0  0
  9 56  1  0  0  0  0
  4 10  1  0  0  0  0
 11 16  1  0  0  0  0
 11 18  1  0  0  0  0
 11 34  1  0  0  0  0
  2 12  1  0  0  0  0
 12 35  1  0  0  0  0
  2 13  1  0  0  0  0
 13 17  1  0  0  0  0
 13 36  1  0  0  0  0
 14 17  1  0  0  0  0
 14 28  1  0  0  0  0
 15 29  1  0  0  0  0
  9 16  1  0  0  0  0
  6 17  1  0  0  0  0
 18 30  1  0  0  0  0
  3 19  1  0  0  0  0
  6 19  1  0  0  0  0
 19 29  1  0  0  0  0
 20 21  1  0  0  0  0
 20 22  1  0  0  0  0
 20 37  1  0  0  0  0
 20 38  1  0  0  0  0
 21 23  1  0  0  0  0
 21 39  1  0  0  0  0
 21 40  1  0  0  0  0
 22 24  1  0  0  0  0
 22 41  1  0  0  0  0
 22 42  1  0  0  0  0
 23 27  1  0  0  0  0
 23 43  1  0  0  0  0
 23 44  1  0  0  0  0
 24 27  1  0  0  0  0
 24 45  1  0  0  0  0
 24 46  1  0  0  0  0
  4 25  1  0  0  0  0
 25 26  1  0  0  0  0
 25 47  1  0  0  0  0
 25 48  1  0  0  0  0
  9 26  1  0  0  0  0
 26 27  1  0  0  0  0
 26 49  1  0  0  0  0
  4 27  1  0  0  0  0
 28 50  1  0  0  0  0
 28 51  1  0  0  0  0
 28 52  1  0  0  0  0
 29 53  1  0  0  0  0
 29 54  1  0  0  0  0
M  END
>  <pdb_header>
REMARK   1 CREATED WITH MDTraj 1.9.4, 2020-08-14
CRYST1   96.902   96.902   96.902  90.00  90.00  90.00 P 1           1 


$$$$
EN300-124496-charged-primary_aminebackwards
  PyMOL2.3          3D                             0

 52 54  0  0  0  0  0  0  0  0999 V2000
   54.9200   51.6132   62.3333 C   0  0  0  0  0  0  0  0  0  0  0  0
   53.1046   50.3112   61.5078 N   0  0  0  0  0  0  0  0  0  0  0  0
   54.4302   46.8810   63.4136 O   0  0  0  0  0  0  0  0  0  0  0  0
   55.1520   44.3511   65.5810 C   0  0  0  0  0  0  0  0  0  0  0  0
   54.4114   48.7532   64.6234 N   0  0  0  0  0  0  0  0  0  0  0  0
   52.8844   44.5021   64.9120 C   0  0  0  0  0  0  0  0  0  0  0  0
   56.3582   42.1854   65.4472 N   0  0  0  0  0  0  0  0  0  0  0  0
   54.0382   42.4261   64.7206 C   0  0  0  0  0  0  0  0  0  0  0  0
   53.9870   51.3615   61.3801 C   0  0  0  0  0  0  0  0  0  0  0  0
   53.2461   49.4722   62.5749 C   0  0  0  0  0  0  0  0  0  0  0  0
   55.0686   50.8430   63.4785 C   0  0  0  0  0  0  0  0  0  0  0  0
   53.9654   45.1177   65.4379 C   0  0  0  0  0  0  0  0  0  0  0  0
   55.2191   42.9976   65.2225 C   0  0  0  0  0  0  0  0  0  0  0  0
   54.2117   49.7113   63.5412 C   0  0  0  0  0  0  0  0  0  0  0  0
   52.8784   43.1579   64.6901 C   0  0  0  0  0  0  0  0  0  0  0  0
   54.2974   47.3962   64.4969 C   0  0  0  0  0  0  0  0  0  0  0  0
   58.2969   43.8263   64.6649 C   0  0  0  0  0  0  0  0  0  0  0  0
   58.5879   41.3971   64.9974 C   0  0  0  0  0  0  0  0  0  0  0  0
   58.2955   43.6927   63.0891 C   0  0  0  0  0  0  0  0  0  0  0  0
   58.3408   41.1556   63.5098 C   0  0  0  0  0  0  0  0  0  0  0  0
   57.7779   42.5843   65.4819 C   0  0  0  0  0  0  0  0  0  0  0  0
   58.9319   42.3471   62.6858 C   0  0  0  0  0  0  0  0  0  0  0  0
   56.0189   51.3083   64.4864 C   0  0  0  0  0  0  0  0  0  0  0  0
   58.1042   42.7899   66.9441 C   0  0  0  0  0  0  0  0  0  0  0  0
   54.1014   46.5530   65.7583 C   0  0  0  0  0  0  0  0  0  0  0  0
   51.4239   42.5181   63.9293 Cl  0  0  0  0  0  0  0  0  0  0  0  0
   60.3046   42.4558   62.8703 F   0  0  0  0  0  0  0  0  0  0  0  0
   58.8097   42.0874   61.4470 F   0  0  0  0  0  0  0  0  0  0  0  0
   55.5683   52.4702   62.1989 H   0  0  0  0  0  0  0  0  0  0  0  0
   56.0066   44.6361   66.1846 H   0  0  0  0  0  0  0  0  0  0  0  0
   52.0747   45.1569   64.6013 H   0  0  0  0  0  0  0  0  0  0  0  0
   53.8437   41.3838   64.4804 H   0  0  0  0  0  0  0  0  0  0  0  0
   53.8996   51.9762   60.4876 H   0  0  0  0  0  0  0  0  0  0  0  0
   52.5571   48.6342   62.6386 H   0  0  0  0  0  0  0  0  0  0  0  0
   59.3321   43.9559   64.9769 H   0  0  0  0  0  0  0  0  0  0  0  0
   57.7724   44.7317   64.9927 H   0  0  0  0  0  0  0  0  0  0  0  0
   58.3307   40.4273   65.4500 H   0  0  0  0  0  0  0  0  0  0  0  0
   59.6625   41.4861   65.1356 H   0  0  0  0  0  0  0  0  0  0  0  0
   57.2627   43.7805   62.7211 H   0  0  0  0  0  0  0  0  0  0  0  0
   58.8961   44.5383   62.7440 H   0  0  0  0  0  0  0  0  0  0  0  0
   58.9268   40.2627   63.2689 H   0  0  0  0  0  0  0  0  0  0  0  0
   57.2582   41.0480   63.3810 H   0  0  0  0  0  0  0  0  0  0  0  0
   55.5731   51.8194   65.3408 H   0  0  0  0  0  0  0  0  0  0  0  0
   56.5551   50.4743   64.9541 H   0  0  0  0  0  0  0  0  0  0  0  0
   56.7737   52.0138   64.1111 H   0  0  0  0  0  0  0  0  0  0  0  0
   57.3743   43.4756   67.3959 H   0  0  0  0  0  0  0  0  0  0  0  0
   59.0983   43.1964   67.1223 H   0  0  0  0  0  0  0  0  0  0  0  0
   58.0026   41.8708   67.5219 H   0  0  0  0  0  0  0  0  0  0  0  0
   53.1886   46.8470   66.2889 H   0  0  0  0  0  0  0  0  0  0  0  0
   55.0000   46.5839   66.3743 H   0  0  0  0  0  0  0  0  0  0  0  0
   54.6157   49.0369   65.5765 H   0  0  0  0  0  0  0  0  0  0  0  0
   56.1737   41.1861   65.3741 H   0  0  0  0  0  0  0  0  0  0  0  0
  1  9  1  0  0  0  0
  1 11  1  0  0  0  0
  1 29  1  0  0  0  0
  4 12  1  0  0  0  0
  4 13  1  0  0  0  0
  4 30  1  0  0  0  0
  5 51  1  0  0  0  0
  6 12  1  0  0  0  0
  6 15  1  0  0  0  0
  6 31  1  0  0  0  0
  7 52  1  0  0  0  0
  8 13  1  0  0  0  0
  8 15  1  0  0  0  0
  8 32  1  0  0  0  0
  2  9  1  0  0  0  0
  9 33  1  0  0  0  0
  2 10  1  0  0  0  0
 10 14  1  0  0  0  0
 10 34  1  0  0  0  0
 11 14  1  0  0  0  0
 11 23  1  0  0  0  0
 12 25  1  0  0  0  0
  7 13  1  0  0  0  0
  5 14  1  0  0  0  0
 15 26  1  0  0  0  0
  3 16  1  0  0  0  0
  5 16  1  0  0  0  0
 16 25  1  0  0  0  0
 17 19  1  0  0  0  0
 17 21  1  0  0  0  0
 17 35  1  0  0  0  0
 17 36  1  0  0  0  0
 18 20  1  0  0  0  0
 18 21  1  0  0  0  0
 18 37  1  0  0  0  0
 18 38  1  0  0  0  0
 19 22  1  0  0  0  0
 19 39  1  0  0  0  0
 19 40  1  0  0  0  0
 20 22  1  0  0  0  0
 20 41  1  0  0  0  0
 20 42  1  0  0  0  0
  7 21  1  0  0  0  0
 21 24  1  0  0  0  0
 22 27  1  0  0  0  0
 22 28  1  0  0  0  0
 23 43  1  0  0  0  0
 23 44  1  0  0  0  0
 23 45  1  0  0  0  0
 24 46  1  0  0  0  0
 24 47  1  0  0  0  0
 24 48  1  0  0  0  0
 25 49  1  0  0  0  0
 25 50  1  0  0  0  0
M  END
>  <pdb_header>
REMARK   1 CREATED WITH MDTraj 1.9.4, 2020-08-14
CRYST1   96.900   96.900   96.900  90.00  90.00  90.00 P 1           1 


$$$$
EN300-393345-charged-primary_aminebackwards
  PyMOL2.3          3D                             0

 51 54  0  0  0  0  0  0  0  0999 V2000
   54.4368   50.9497   62.9666 C   0  0  0  0  0  0  0  0  0  0  0  0
   52.3003   51.2962   62.0561 N   0  0  0  0  0  0  0  0  0  0  0  0
   50.2710   49.6846   65.2256 O   0  0  0  0  0  0  0  0  0  0  0  0
   52.5547   46.6413   66.8531 C   0  0  0  0  0  0  0  0  0  0  0  0
   52.1732   48.6929   64.6424 N   0  0  0  0  0  0  0  0  0  0  0  0
   54.3731   44.1160   71.3887 O   0  0  0  0  0  0  0  0  0  0  0  0
   51.2941   45.0670   65.4000 C   0  0  0  0  0  0  0  0  0  0  0  0
   54.2766   45.8955   68.2735 N   0  0  0  0  0  0  0  0  0  0  0  0
   53.2669   44.4188   66.5861 C   0  0  0  0  0  0  0  0  0  0  0  0
   53.5965   51.6107   62.0757 C   0  0  0  0  0  0  0  0  0  0  0  0
   51.8307   50.3295   62.8984 C   0  0  0  0  0  0  0  0  0  0  0  0
   53.9894   49.9387   63.8022 C   0  0  0  0  0  0  0  0  0  0  0  0
   51.4180   46.3331   65.9702 C   0  0  0  0  0  0  0  0  0  0  0  0
   53.4829   45.6991   67.1414 C   0  0  0  0  0  0  0  0  0  0  0  0
   52.6426   49.6510   63.8113 C   0  0  0  0  0  0  0  0  0  0  0  0
   52.1639   44.1211   65.7737 C   0  0  0  0  0  0  0  0  0  0  0  0
   50.9297   48.6771   65.2578 C   0  0  0  0  0  0  0  0  0  0  0  0
   51.4482   44.9463   71.2810 C   0  0  0  0  0  0  0  0  0  0  0  0
   51.3872   45.6880   69.9350 C   0  0  0  0  0  0  0  0  0  0  0  0
   55.8209   45.4372   70.1852 C   0  0  0  0  0  0  0  0  0  0  0  0
   55.5390   44.8770   71.5591 C   0  0  0  0  0  0  0  0  0  0  0  0
   52.6702   45.4691   70.6416 C   0  0  0  0  0  0  0  0  0  0  0  0
   54.6818   44.8895   69.2539 C   0  0  0  0  0  0  0  0  0  0  0  0
   53.6291   44.4118   70.2218 C   0  0  0  0  0  0  0  0  0  0  0  0
   55.0075   49.2278   64.6836 C   0  0  0  0  0  0  0  0  0  0  0  0
   50.3102   47.3974   65.7285 C   0  0  0  0  0  0  0  0  0  0  0  0
   52.0322   42.5804   65.1017 Cl  0  0  0  0  0  0  0  0  0  0  0  0
   55.4894   51.1953   62.8519 H   0  0  0  0  0  0  0  0  0  0  0  0
   52.4944   47.6178   67.3175 H   0  0  0  0  0  0  0  0  0  0  0  0
   50.4560   44.7507   64.7888 H   0  0  0  0  0  0  0  0  0  0  0  0
   53.7780   43.4995   66.8435 H   0  0  0  0  0  0  0  0  0  0  0  0
   54.0653   52.3502   61.4338 H   0  0  0  0  0  0  0  0  0  0  0  0
   50.7651   50.1105   62.9445 H   0  0  0  0  0  0  0  0  0  0  0  0
   50.6654   45.5730   71.7133 H   0  0  0  0  0  0  0  0  0  0  0  0
   51.5774   45.2160   72.3384 H   0  0  0  0  0  0  0  0  0  0  0  0
   51.1743   45.2261   68.9620 H   0  0  0  0  0  0  0  0  0  0  0  0
   50.9670   46.6964   69.9944 H   0  0  0  0  0  0  0  0  0  0  0  0
   55.8824   46.5300   70.1533 H   0  0  0  0  0  0  0  0  0  0  0  0
   56.7824   45.1150   69.7724 H   0  0  0  0  0  0  0  0  0  0  0  0
   56.4183   44.3173   71.8706 H   0  0  0  0  0  0  0  0  0  0  0  0
   55.2784   45.6539   72.2786 H   0  0  0  0  0  0  0  0  0  0  0  0
   53.0770   46.3368   71.1698 H   0  0  0  0  0  0  0  0  0  0  0  0
   54.9889   43.9450   68.8071 H   0  0  0  0  0  0  0  0  0  0  0  0
   53.1699   43.4844   69.8697 H   0  0  0  0  0  0  0  0  0  0  0  0
   55.9480   49.0855   64.1320 H   0  0  0  0  0  0  0  0  0  0  0  0
   55.2198   49.8980   65.5306 H   0  0  0  0  0  0  0  0  0  0  0  0
   54.7323   48.2391   65.0497 H   0  0  0  0  0  0  0  0  0  0  0  0
   49.5739   47.0872   64.9809 H   0  0  0  0  0  0  0  0  0  0  0  0
   49.7514   47.5050   66.6566 H   0  0  0  0  0  0  0  0  0  0  0  0
   52.7407   47.8747   64.8350 H   0  0  0  0  0  0  0  0  0  0  0  0
   54.1839   46.8638   68.5983 H   0  0  0  0  0  0  0  0  0  0  0  0
  1 10  1  0  0  0  0
  1 12  1  0  0  0  0
  1 28  1  0  0  0  0
  4 13  1  0  0  0  0
  4 14  1  0  0  0  0
  4 29  1  0  0  0  0
  5 50  1  0  0  0  0
  7 13  1  0  0  0  0
  7 16  1  0  0  0  0
  7 30  1  0  0  0  0
  8 51  1  0  0  0  0
  9 14  1  0  0  0  0
  9 16  1  0  0  0  0
  9 31  1  0  0  0  0
  2 10  1  0  0  0  0
 10 32  1  0  0  0  0
  2 11  1  0  0  0  0
 11 15  1  0  0  0  0
 11 33  1  0  0  0  0
 12 15  1  0  0  0  0
 12 25  1  0  0  0  0
 13 26  1  0  0  0  0
  8 14  1  0  0  0  0
  5 15  1  0  0  0  0
 16 27  1  0  0  0  0
  3 17  1  0  0  0  0
  5 17  1  0  0  0  0
 17 26  1  0  0  0  0
 18 19  1  0  0  0  0
 18 22  1  0  0  0  0
 18 34  1  0  0  0  0
 18 35  1  0  0  0  0
 19 22  1  0  0  0  0
 19 36  1  0  0  0  0
 19 37  1  0  0  0  0
 20 21  1  0  0  0  0
 20 23  1  0  0  0  0
 20 38  1  0  0  0  0
 20 39  1  0  0  0  0
  6 21  1  0  0  0  0
 21 40  1  0  0  0  0
 21 41  1  0  0  0  0
 22 24  1  0  0  0  0
 22 42  1  0  0  0  0
  8 23  1  0  0  0  0
 23 24  1  0  0  0  0
 23 43  1  0  0  0  0
  6 24  1  0  0  0  0
 24 44  1  0  0  0  0
 25 45  1  0  0  0  0
 25 46  1  0  0  0  0
 25 47  1  0  0  0  0
 26 48  1  0  0  0  0
 26 49  1  0  0  0  0
M  END
>  <pdb_header>
REMARK   1 CREATED WITH MDTraj 1.9.4, 2020-08-14
CRYST1   96.879   96.879   96.879  90.00  90.00  90.00 P 1           1 


$$$$
EN300-6497035-charged-primary_aminebackwards
  PyMOL2.3          3D                             0

 50 53  0  0  0  0  0  0  0  0999 V2000
   55.1501   50.8776   61.8812 C   0  0  0  0  0  0  0  0  0  0  0  0
   53.0869   50.8347   60.6557 N   0  0  0  0  0  0  0  0  0  0  0  0
   50.4546   49.6265   63.6930 O   0  0  0  0  0  0  0  0  0  0  0  0
   53.1991   47.8501   66.8787 C   0  0  0  0  0  0  0  0  0  0  0  0
   52.7283   49.2494   64.0571 N   0  0  0  0  0  0  0  0  0  0  0  0
   52.1265   46.0336   65.8360 C   0  0  0  0  0  0  0  0  0  0  0  0
   55.2645   47.4949   68.2191 N   0  0  0  0  0  0  0  0  0  0  0  0
   54.0446   45.6463   67.0905 C   0  0  0  0  0  0  0  0  0  0  0  0
   54.3869   51.1962   60.7517 C   0  0  0  0  0  0  0  0  0  0  0  0
   52.5729   50.2179   61.7697 C   0  0  0  0  0  0  0  0  0  0  0  0
   54.6288   50.3116   63.0294 C   0  0  0  0  0  0  0  0  0  0  0  0
   52.1581   47.3936   66.1218 C   0  0  0  0  0  0  0  0  0  0  0  0
   54.1366   46.9996   67.4253 C   0  0  0  0  0  0  0  0  0  0  0  0
   53.2973   49.9786   62.9720 C   0  0  0  0  0  0  0  0  0  0  0  0
   53.1036   45.1379   66.2827 C   0  0  0  0  0  0  0  0  0  0  0  0
   51.3943   49.0931   64.3512 C   0  0  0  0  0  0  0  0  0  0  0  0
   55.1972   50.8457   70.1308 C   0  0  0  0  0  0  0  0  0  0  0  0
   56.4077   51.4180   69.4413 C   0  0  0  0  0  0  0  0  0  0  0  0
   54.7648   49.4727   69.6418 C   0  0  0  0  0  0  0  0  0  0  0  0
   57.4974   50.3590   69.2800 C   0  0  0  0  0  0  0  0  0  0  0  0
   57.0429   49.0289   68.8629 C   0  0  0  0  0  0  0  0  0  0  0  0
   55.5901   48.9237   68.4943 C   0  0  0  0  0  0  0  0  0  0  0  0
   57.8982   49.8960   67.9352 C   0  0  0  0  0  0  0  0  0  0  0  0
   55.4987   50.2055   64.2051 C   0  0  0  0  0  0  0  0  0  0  0  0
   51.0525   48.2994   65.5655 C   0  0  0  0  0  0  0  0  0  0  0  0
   53.0018   43.4509   65.9148 Cl  0  0  0  0  0  0  0  0  0  0  0  0
   59.1732   49.5832   67.7198 F   0  0  0  0  0  0  0  0  0  0  0  0
   57.3479   50.5304   66.8673 F   0  0  0  0  0  0  0  0  0  0  0  0
   56.1936   51.2008   61.8947 H   0  0  0  0  0  0  0  0  0  0  0  0
   53.2972   48.9252   67.0255 H   0  0  0  0  0  0  0  0  0  0  0  0
   51.3803   45.6667   65.1315 H   0  0  0  0  0  0  0  0  0  0  0  0
   54.8651   45.0969   67.5365 H   0  0  0  0  0  0  0  0  0  0  0  0
   54.7882   51.7108   59.8854 H   0  0  0  0  0  0  0  0  0  0  0  0
   51.5502   49.8492   61.7550 H   0  0  0  0  0  0  0  0  0  0  0  0
   55.5101   50.6755   71.1666 H   0  0  0  0  0  0  0  0  0  0  0  0
   54.3631   51.5444   70.0422 H   0  0  0  0  0  0  0  0  0  0  0  0
   56.0522   51.8851   68.5085 H   0  0  0  0  0  0  0  0  0  0  0  0
   56.9238   52.2118   69.9894 H   0  0  0  0  0  0  0  0  0  0  0  0
   54.7862   48.8322   70.5186 H   0  0  0  0  0  0  0  0  0  0  0  0
   53.7133   49.5167   69.3268 H   0  0  0  0  0  0  0  0  0  0  0  0
   58.2662   50.4264   70.0509 H   0  0  0  0  0  0  0  0  0  0  0  0
   57.4808   48.1073   69.2776 H   0  0  0  0  0  0  0  0  0  0  0  0
   55.3721   49.4535   67.5676 H   0  0  0  0  0  0  0  0  0  0  0  0
   56.0352   51.1397   64.3735 H   0  0  0  0  0  0  0  0  0  0  0  0
   54.9820   49.8790   65.1126 H   0  0  0  0  0  0  0  0  0  0  0  0
   56.1470   49.3275   64.1170 H   0  0  0  0  0  0  0  0  0  0  0  0
   50.1916   47.6933   65.2681 H   0  0  0  0  0  0  0  0  0  0  0  0
   50.7008   48.8859   66.4216 H   0  0  0  0  0  0  0  0  0  0  0  0
   53.4398   48.7899   64.6273 H   0  0  0  0  0  0  0  0  0  0  0  0
   55.4086   46.9228   69.0495 H   0  0  0  0  0  0  0  0  0  0  0  0
  1  9  1  0  0  0  0
  1 11  1  0  0  0  0
  1 29  1  0  0  0  0
  4 12  1  0  0  0  0
  4 13  1  0  0  0  0
  4 30  1  0  0  0  0
  5 49  1  0  0  0  0
  6 12  1  0  0  0  0
  6 15  1  0  0  0  0
  6 31  1  0  0  0  0
  7 50  1  0  0  0  0
  8 13  1  0  0  0  0
  8 15  1  0  0  0  0
  8 32  1  0  0  0  0
  2  9  1  0  0  0  0
  9 33  1  0  0  0  0
  2 10  1  0  0  0  0
 10 14  1  0  0  0  0
 10 34  1  0  0  0  0
 11 14  1  0  0  0  0
 11 24  1  0  0  0  0
 12 25  1  0  0  0  0
  7 13  1  0  0  0  0
  5 14  1  0  0  0  0
 15 26  1  0  0  0  0
  3 16  1  0  0  0  0
  5 16  1  0  0  0  0
 16 25  1  0  0  0  0
 17 18  1  0  0  0  0
 17 19  1  0  0  0  0
 17 35  1  0  0  0  0
 17 36  1  0  0  0  0
 18 20  1  0  0  0  0
 18 37  1  0  0  0  0
 18 38  1  0  0  0  0
 19 22  1  0  0  0  0
 19 39  1  0  0  0  0
 19 40  1  0  0  0  0
 20 21  1  0  0  0  0
 20 23  1  0  0  0  0
 20 41  1  0  0  0  0
 21 22  1  0  0  0  0
 21 23  1  0  0  0  0
 21 42  1  0  0  0  0
  7 22  1  0  0  0  0
 22 43  1  0  0  0  0
 23 27  1  0  0  0  0
 23 28  1  0  0  0  0
 24 44  1  0  0  0  0
 24 45  1  0  0  0  0
 24 46  1  0  0  0  0
 25 47  1  0  0  0  0
 25 48  1  0  0  0  0
M  END
>  <pdb_header>
REMARK   1 CREATED WITH MDTraj 1.9.4, 2020-08-14
CRYST1   96.972   96.972   96.972  90.00  90.00  90.00 P 1           1 


$$$$
EN300-1708634-charged-primary_aminebackwards
  PyMOL2.3          3D                             0

 60 63  0  0  0  0  0  0  0  0999 V2000
   54.6065   51.7220   62.3147 C   0  0  0  0  0  0  0  0  0  0  0  0
   52.6782   51.0061   61.0283 N   0  0  0  0  0  0  0  0  0  0  0  0
   50.4975   49.0174   64.0683 O   0  0  0  0  0  0  0  0  0  0  0  0
   59.1471   47.4896   66.9448 S   0  0  0  0  0  0  0  0  0  0  0  0
   53.5271   46.5728   65.7423 C   0  0  0  0  0  0  0  0  0  0  0  0
   52.6468   49.5367   64.5280 N   0  0  0  0  0  0  0  0  0  0  0  0
   60.1122   48.5295   67.2450 O   0  0  0  0  0  0  0  0  0  0  0  0
   51.4027   45.4193   65.4185 C   0  0  0  0  0  0  0  0  0  0  0  0
   55.5964   45.4673   65.1694 N   0  0  0  0  0  0  0  0  0  0  0  0
   59.6885   46.1909   67.4754 O   0  0  0  0  0  0  0  0  0  0  0  0
   53.5181   44.2018   65.0890 C   0  0  0  0  0  0  0  0  0  0  0  0
   60.6477   48.4815   63.3102 O   0  0  0  0  0  0  0  0  0  0  0  0
   53.7956   51.7538   61.1480 C   0  0  0  0  0  0  0  0  0  0  0  0
   52.2570   50.3174   62.0911 C   0  0  0  0  0  0  0  0  0  0  0  0
   54.1875   51.0111   63.4453 C   0  0  0  0  0  0  0  0  0  0  0  0
   52.1539   46.6433   65.6932 C   0  0  0  0  0  0  0  0  0  0  0  0
   54.2137   45.4304   65.3139 C   0  0  0  0  0  0  0  0  0  0  0  0
   52.9876   50.2616   63.3454 C   0  0  0  0  0  0  0  0  0  0  0  0
   52.1202   44.2003   65.1733 C   0  0  0  0  0  0  0  0  0  0  0  0
   51.4765   48.8164   64.7670 C   0  0  0  0  0  0  0  0  0  0  0  0
   60.2287   46.5681   64.5413 C   0  0  0  0  0  0  0  0  0  0  0  0
   58.5106   48.4445   64.3136 C   0  0  0  0  0  0  0  0  0  0  0  0
   56.5707   46.6827   67.1652 C   0  0  0  0  0  0  0  0  0  0  0  0
   57.8349   46.1164   65.0112 C   0  0  0  0  0  0  0  0  0  0  0  0
   61.3231   47.5354   64.2207 C   0  0  0  0  0  0  0  0  0  0  0  0
   59.7188   49.2451   64.0275 C   0  0  0  0  0  0  0  0  0  0  0  0
   57.5428   47.7971   67.5325 C   0  0  0  0  0  0  0  0  0  0  0  0
   56.4673   46.5261   65.5644 C   0  0  0  0  0  0  0  0  0  0  0  0
   58.8651   47.1723   65.1598 C   0  0  0  0  0  0  0  0  0  0  0  0
   55.0545   50.9477   64.6308 C   0  0  0  0  0  0  0  0  0  0  0  0
   51.4407   47.9671   66.0271 C   0  0  0  0  0  0  0  0  0  0  0  0
   51.3053   42.7317   65.1565 Cl  0  0  0  0  0  0  0  0  0  0  0  0
   55.5126   52.2960   62.1128 H   0  0  0  0  0  0  0  0  0  0  0  0
   54.1200   47.4394   66.0211 H   0  0  0  0  0  0  0  0  0  0  0  0
   50.3310   45.2521   65.4526 H   0  0  0  0  0  0  0  0  0  0  0  0
   54.0092   43.2833   64.8068 H   0  0  0  0  0  0  0  0  0  0  0  0
   54.2592   52.2635   60.3066 H   0  0  0  0  0  0  0  0  0  0  0  0
   51.3021   49.8179   62.0050 H   0  0  0  0  0  0  0  0  0  0  0  0
   60.0228   46.1049   63.5774 H   0  0  0  0  0  0  0  0  0  0  0  0
   60.6382   45.8321   65.2419 H   0  0  0  0  0  0  0  0  0  0  0  0
   57.7645   49.0137   64.8652 H   0  0  0  0  0  0  0  0  0  0  0  0
   58.0117   48.1277   63.3850 H   0  0  0  0  0  0  0  0  0  0  0  0
   57.0235   45.7905   67.6067 H   0  0  0  0  0  0  0  0  0  0  0  0
   55.6153   46.8057   67.6818 H   0  0  0  0  0  0  0  0  0  0  0  0
   58.1216   45.1909   65.5148 H   0  0  0  0  0  0  0  0  0  0  0  0
   57.6035   45.8017   63.9848 H   0  0  0  0  0  0  0  0  0  0  0  0
   61.6520   48.0938   65.0999 H   0  0  0  0  0  0  0  0  0  0  0  0
   62.1031   47.0036   63.6626 H   0  0  0  0  0  0  0  0  0  0  0  0
   59.5385   50.1251   63.4170 H   0  0  0  0  0  0  0  0  0  0  0  0
   60.0686   49.5989   65.0054 H   0  0  0  0  0  0  0  0  0  0  0  0
   57.5463   47.9998   68.5987 H   0  0  0  0  0  0  0  0  0  0  0  0
   57.2293   48.7597   67.1023 H   0  0  0  0  0  0  0  0  0  0  0  0
   56.2910   47.4947   65.0698 H   0  0  0  0  0  0  0  0  0  0  0  0
   54.6591   51.3946   65.5424 H   0  0  0  0  0  0  0  0  0  0  0  0
   55.3057   49.9071   64.8545 H   0  0  0  0  0  0  0  0  0  0  0  0
   56.0097   51.4612   64.5373 H   0  0  0  0  0  0  0  0  0  0  0  0
   50.4268   47.7997   66.3941 H   0  0  0  0  0  0  0  0  0  0  0  0
   52.0038   48.4603   66.8154 H   0  0  0  0  0  0  0  0  0  0  0  0
   53.2463   49.6543   65.3421 H   0  0  0  0  0  0  0  0  0  0  0  0
   56.0701   44.6498   64.7632 H   0  0  0  0  0  0  0  0  0  0  0  0
  1 13  1  0  0  0  0
  1 15  1  0  0  0  0
  1 33  1  0  0  0  0
  5 16  1  0  0  0  0
  5 17  1  0  0  0  0
  5 34  1  0  0  0  0
  6 59  1  0  0  0  0
  4  7  1  0  0  0  0
  8 16  1  0  0  0  0
  8 19  1  0  0  0  0
  8 35  1  0  0  0  0
  9 60  1  0  0  0  0
  4 10  1  0  0  0  0
 11 17  1  0  0  0  0
 11 19  1  0  0  0  0
 11 36  1  0  0  0  0
  2 13  1  0  0  0  0
 13 37  1  0  0  0  0
  2 14  1  0  0  0  0
 14 18  1  0  0  0  0
 14 38  1  0  0  0  0
 15 18  1  0  0  0  0
 15 30  1  0  0  0  0
 16 31  1  0  0  0  0
  9 17  1  0  0  0  0
  6 18  1  0  0  0  0
 19 32  1  0  0  0  0
  3 20  1  0  0  0  0
  6 20  1  0  0  0  0
 20 31  1  0  0  0  0
 21 25  1  0  0  0  0
 21 29  1  0  0  0  0
 21 39  1  0  0  0  0
 21 40  1  0  0  0  0
 22 26  1  0  0  0  0
 22 29  1  0  0  0  0
 22 41  1  0  0  0  0
 22 42  1  0  0  0  0
 23 27  1  0  0  0  0
 23 28  1  0  0  0  0
 23 43  1  0  0  0  0
 23 44  1  0  0  0  0
 24 28  1  0  0  0  0
 24 29  1  0  0  0  0
 24 45  1  0  0  0  0
 24 46  1  0  0  0  0
 12 25  1  0  0  0  0
 25 47  1  0  0  0  0
 25 48  1  0  0  0  0
 12 26  1  0  0  0  0
 26 49  1  0  0  0  0
 26 50  1  0  0  0  0
  4 27  1  0  0  0  0
 27 51  1  0  0  0  0
 27 52  1  0  0  0  0
  9 28  1  0  0  0  0
 28 53  1  0  0  0  0
  4 29  1  0  0  0  0
 30 54  1  0  0  0  0
 30 55  1  0  0  0  0
 30 56  1  0  0  0  0
 31 57  1  0  0  0  0
 31 58  1  0  0  0  0
M  END
>  <pdb_header>
REMARK   1 CREATED WITH MDTraj 1.9.4, 2020-08-14
CRYST1   96.892   96.892   96.892  90.00  90.00  90.00 P 1           1 


$$$$
EN300-136221-charged-primary_aminebackwards
  PyMOL2.3          3D                             0

 52 54  0  0  0  0  0  0  0  0999 V2000
   55.3323   51.4225   62.6256 C   0  0  0  0  0  0  0  0  0  0  0  0
   53.2020   51.6497   61.5823 N   0  0  0  0  0  0  0  0  0  0  0  0
   50.6698   50.9683   64.9263 O   0  0  0  0  0  0  0  0  0  0  0  0
   52.5214   47.0275   65.9823 C   0  0  0  0  0  0  0  0  0  0  0  0
   52.8379   50.5170   65.1345 N   0  0  0  0  0  0  0  0  0  0  0  0
   50.1635   47.0934   65.5473 C   0  0  0  0  0  0  0  0  0  0  0  0
   53.7659   44.9135   65.7552 N   0  0  0  0  0  0  0  0  0  0  0  0
   51.3068   45.1041   65.2610 C   0  0  0  0  0  0  0  0  0  0  0  0
   54.4943   51.6121   61.5480 C   0  0  0  0  0  0  0  0  0  0  0  0
   52.6088   51.2531   62.7174 C   0  0  0  0  0  0  0  0  0  0  0  0
   54.7808   51.1995   63.8541 C   0  0  0  0  0  0  0  0  0  0  0  0
   51.3340   47.7592   65.9257 C   0  0  0  0  0  0  0  0  0  0  0  0
   52.5616   45.6689   65.6911 C   0  0  0  0  0  0  0  0  0  0  0  0
   53.3514   51.0215   63.9188 C   0  0  0  0  0  0  0  0  0  0  0  0
   50.1297   45.7399   65.1587 C   0  0  0  0  0  0  0  0  0  0  0  0
   51.5555   50.3288   65.4770 C   0  0  0  0  0  0  0  0  0  0  0  0
   56.4636   42.5592   65.0097 C   0  0  0  0  0  0  0  0  0  0  0  0
   55.1022   42.5002   64.2917 C   0  0  0  0  0  0  0  0  0  0  0  0
   56.5112   43.6665   66.0354 C   0  0  0  0  0  0  0  0  0  0  0  0
   53.9111   42.4262   65.3111 C   0  0  0  0  0  0  0  0  0  0  0  0
   55.3556   43.5646   67.0468 C   0  0  0  0  0  0  0  0  0  0  0  0
   53.9603   43.5796   66.3584 C   0  0  0  0  0  0  0  0  0  0  0  0
   55.6107   50.9494   65.1206 C   0  0  0  0  0  0  0  0  0  0  0  0
   51.2130   49.1887   66.4638 C   0  0  0  0  0  0  0  0  0  0  0  0
   52.8207   43.4369   67.4459 C   0  0  0  0  0  0  0  0  0  0  0  0
   48.6029   44.8976   64.5873 Cl  0  0  0  0  0  0  0  0  0  0  0  0
   52.9281   42.2893   68.1526 F   0  0  0  0  0  0  0  0  0  0  0  0
   52.8241   44.4707   68.4191 F   0  0  0  0  0  0  0  0  0  0  0  0
   56.4079   51.3455   62.5160 H   0  0  0  0  0  0  0  0  0  0  0  0
   53.3720   47.5812   66.3693 H   0  0  0  0  0  0  0  0  0  0  0  0
   49.2218   47.6374   65.5856 H   0  0  0  0  0  0  0  0  0  0  0  0
   51.2060   44.0641   64.9715 H   0  0  0  0  0  0  0  0  0  0  0  0
   54.9459   51.8494   60.5915 H   0  0  0  0  0  0  0  0  0  0  0  0
   51.5455   51.0612   62.5912 H   0  0  0  0  0  0  0  0  0  0  0  0
   56.5642   41.5930   65.5021 H   0  0  0  0  0  0  0  0  0  0  0  0
   57.1764   42.6437   64.1833 H   0  0  0  0  0  0  0  0  0  0  0  0
   55.0148   43.4797   63.8116 H   0  0  0  0  0  0  0  0  0  0  0  0
   55.1265   41.5727   63.7126 H   0  0  0  0  0  0  0  0  0  0  0  0
   57.5465   43.6804   66.3851 H   0  0  0  0  0  0  0  0  0  0  0  0
   56.3918   44.6006   65.4837 H   0  0  0  0  0  0  0  0  0  0  0  0
   53.0253   42.6173   64.7083 H   0  0  0  0  0  0  0  0  0  0  0  0
   53.8409   41.4549   65.8130 H   0  0  0  0  0  0  0  0  0  0  0  0
   55.3933   44.3321   67.8230 H   0  0  0  0  0  0  0  0  0  0  0  0
   55.5018   42.6230   67.5940 H   0  0  0  0  0  0  0  0  0  0  0  0
   56.6175   51.3737   65.1858 H   0  0  0  0  0  0  0  0  0  0  0  0
   55.1516   51.4198   66.0026 H   0  0  0  0  0  0  0  0  0  0  0  0
   55.6900   49.8714   65.2670 H   0  0  0  0  0  0  0  0  0  0  0  0
   50.1738   49.3300   66.7751 H   0  0  0  0  0  0  0  0  0  0  0  0
   51.8934   49.2076   67.3128 H   0  0  0  0  0  0  0  0  0  0  0  0
   51.8829   43.3552   66.9014 H   0  0  0  0  0  0  0  0  0  0  0  0
   53.4270   50.0212   65.8074 H   0  0  0  0  0  0  0  0  0  0  0  0
   54.6279   45.4498   65.6993 H   0  0  0  0  0  0  0  0  0  0  0  0
  1  9  1  0  0  0  0
  1 11  1  0  0  0  0
  1 29  1  0  0  0  0
  4 12  1  0  0  0  0
  4 13  1  0  0  0  0
  4 30  1  0  0  0  0
  5 51  1  0  0  0  0
  6 12  1  0  0  0  0
  6 15  1  0  0  0  0
  6 31  1  0  0  0  0
  7 52  1  0  0  0  0
  8 13  1  0  0  0  0
  8 15  1  0  0  0  0
  8 32  1  0  0  0  0
  2  9  1  0  0  0  0
  9 33  1  0  0  0  0
  2 10  1  0  0  0  0
 10 14  1  0  0  0  0
 10 34  1  0  0  0  0
 11 14  1  0  0  0  0
 11 23  1  0  0  0  0
 12 24  1  0  0  0  0
  7 13  1  0  0  0  0
  5 14  1  0  0  0  0
 15 26  1  0  0  0  0
  3 16  1  0  0  0  0
  5 16  1  0  0  0  0
 16 24  1  0  0  0  0
 17 18  1  0  0  0  0
 17 19  1  0  0  0  0
 17 35  1  0  0  0  0
 17 36  1  0  0  0  0
 18 20  1  0  0  0  0
 18 37  1  0  0  0  0
 18 38  1  0  0  0  0
 19 21  1  0  0  0  0
 19 39  1  0  0  0  0
 19 40  1  0  0  0  0
 20 22  1  0  0  0  0
 20 41  1  0  0  0  0
 20 42  1  0  0  0  0
 21 22  1  0  0  0  0
 21 43  1  0  0  0  0
 21 44  1  0  0  0  0
  7 22  1  0  0  0  0
 22 25  1  0  0  0  0
 23 45  1  0  0  0  0
 23 46  1  0  0  0  0
 23 47  1  0  0  0  0
 24 48  1  0  0  0  0
 24 49  1  0  0  0  0
 25 27  1  0  0  0  0
 25 28  1  0  0  0  0
 25 50  1  0  0  0  0
M  END
>  <pdb_header>
REMARK   1 CREATED WITH MDTraj 1.9.4, 2020-08-14
CRYST1   96.942   96.942   96.942  90.00  90.00  90.00 P 1           1 


$$$$
EN300-212829-charged-primary_aminebackwards
  PyMOL2.3          3D                             0

 46 47  0  0  0  0  0  0  0  0999 V2000
   57.5018   40.3688   66.5075 C   0  0  0  0  0  0  0  0  0  0  0  0
   57.3160   39.7997   67.5003 N   0  0  0  0  0  0  0  0  0  0  0  0
   54.4680   46.8248   63.7172 O   0  0  0  0  0  0  0  0  0  0  0  0
   54.6232   51.8898   63.0820 C   0  0  0  0  0  0  0  0  0  0  0  0
   53.4362   50.4339   61.5831 N   0  0  0  0  0  0  0  0  0  0  0  0
   54.4471   44.1058   65.5619 C   0  0  0  0  0  0  0  0  0  0  0  0
   54.1110   48.6517   64.8508 N   0  0  0  0  0  0  0  0  0  0  0  0
   52.1056   44.3187   64.9851 C   0  0  0  0  0  0  0  0  0  0  0  0
   55.5013   41.9369   65.1138 N   0  0  0  0  0  0  0  0  0  0  0  0
   53.1765   42.2481   64.7087 C   0  0  0  0  0  0  0  0  0  0  0  0
   53.9831   51.6813   61.8713 C   0  0  0  0  0  0  0  0  0  0  0  0
   53.6137   49.4651   62.5400 C   0  0  0  0  0  0  0  0  0  0  0  0
   54.7928   50.9106   64.0503 C   0  0  0  0  0  0  0  0  0  0  0  0
   53.2585   44.9192   65.4596 C   0  0  0  0  0  0  0  0  0  0  0  0
   54.3709   42.7787   65.1830 C   0  0  0  0  0  0  0  0  0  0  0  0
   54.2393   49.6562   63.8565 C   0  0  0  0  0  0  0  0  0  0  0  0
   51.9748   42.9450   64.6139 C   0  0  0  0  0  0  0  0  0  0  0  0
   53.9883   47.3066   64.6867 C   0  0  0  0  0  0  0  0  0  0  0  0
   55.3855   51.2652   65.4232 C   0  0  0  0  0  0  0  0  0  0  0  0
   58.0535   40.5872   63.9811 C   0  0  0  0  0  0  0  0  0  0  0  0
   59.2089   41.8304   65.7641 C   0  0  0  0  0  0  0  0  0  0  0  0
   53.2994   46.3858   65.7573 C   0  0  0  0  0  0  0  0  0  0  0  0
   56.9021   42.4031   65.2767 C   0  0  0  0  0  0  0  0  0  0  0  0
   57.9209   41.2513   65.3740 C   0  0  0  0  0  0  0  0  0  0  0  0
   50.4375   42.2367   64.0919 Cl  0  0  0  0  0  0  0  0  0  0  0  0
   55.0769   52.8516   63.2907 H   0  0  0  0  0  0  0  0  0  0  0  0
   55.3669   44.6025   65.8598 H   0  0  0  0  0  0  0  0  0  0  0  0
   51.2362   44.9765   64.9519 H   0  0  0  0  0  0  0  0  0  0  0  0
   53.1904   41.2625   64.2565 H   0  0  0  0  0  0  0  0  0  0  0  0
   53.8546   52.5155   61.2025 H   0  0  0  0  0  0  0  0  0  0  0  0
   53.2088   48.5385   62.1339 H   0  0  0  0  0  0  0  0  0  0  0  0
   55.8363   52.2474   65.2888 H   0  0  0  0  0  0  0  0  0  0  0  0
   54.6400   51.3964   66.2052 H   0  0  0  0  0  0  0  0  0  0  0  0
   56.0872   50.5414   65.8509 H   0  0  0  0  0  0  0  0  0  0  0  0
   57.8480   41.2500   63.1289 H   0  0  0  0  0  0  0  0  0  0  0  0
   57.2862   39.8142   63.8429 H   0  0  0  0  0  0  0  0  0  0  0  0
   59.0552   40.1600   63.8775 H   0  0  0  0  0  0  0  0  0  0  0  0
   59.2510   42.3487   66.7228 H   0  0  0  0  0  0  0  0  0  0  0  0
   59.6461   42.5024   65.0210 H   0  0  0  0  0  0  0  0  0  0  0  0
   59.8739   40.9795   65.9362 H   0  0  0  0  0  0  0  0  0  0  0  0
   52.2961   46.8049   65.7998 H   0  0  0  0  0  0  0  0  0  0  0  0
   53.6998   46.4767   66.7656 H   0  0  0  0  0  0  0  0  0  0  0  0
   57.1692   43.2473   64.6352 H   0  0  0  0  0  0  0  0  0  0  0  0
   56.9244   42.9039   66.2498 H   0  0  0  0  0  0  0  0  0  0  0  0
   53.9520   48.9962   65.8018 H   0  0  0  0  0  0  0  0  0  0  0  0
   55.2751   41.0103   64.7520 H   0  0  0  0  0  0  0  0  0  0  0  0
  1  2  1  0  0  0  0
  1 24  1  0  0  0  0
  4 11  1  0  0  0  0
  4 13  1  0  0  0  0
  4 26  1  0  0  0  0
  6 14  1  0  0  0  0
  6 15  1  0  0  0  0
  6 27  1  0  0  0  0
  7 45  1  0  0  0  0
  8 14  1  0  0  0  0
  8 17  1  0  0  0  0
  8 28  1  0  0  0  0
  9 46  1  0  0  0  0
 10 15  1  0  0  0  0
 10 17  1  0  0  0  0
 10 29  1  0  0  0  0
  5 11  1  0  0  0  0
 11 30  1  0  0  0  0
  5 12  1  0  0  0  0
 12 16  1  0  0  0  0
 12 31  1  0  0  0  0
 13 16  1  0  0  0  0
 13 19  1  0  0  0  0
 14 22  1  0  0  0  0
  9 15  1  0  0  0  0
  7 16  1  0  0  0  0
 17 25  1  0  0  0  0
  3 18  1  0  0  0  0
  7 18  1  0  0  0  0
 18 22  1  0  0  0  0
 19 32  1  0  0  0  0
 19 33  1  0  0  0  0
 19 34  1  0  0  0  0
 20 24  1  0  0  0  0
 20 35  1  0  0  0  0
 20 36  1  0  0  0  0
 20 37  1  0  0  0  0
 21 24  1  0  0  0  0
 21 38  1  0  0  0  0
 21 39  1  0  0  0  0
 21 40  1  0  0  0  0
 22 41  1  0  0  0  0
 22 42  1  0  0  0  0
  9 23  1  0  0  0  0
 23 24  1  0  0  0  0
 23 43  1  0  0  0  0
 23 44  1  0  0  0  0
M  END
>  <pdb_header>
REMARK   1 CREATED WITH MDTraj 1.9.4, 2020-08-14
CRYST1   96.951   96.951   96.951  90.00  90.00  90.00 P 1           1 


$$$$
EN300-7445610-charged-primary_aminebackwards
  PyMOL2.3          3D                             0

 50 53  0  0  0  0  0  0  0  0999 V2000
   54.1367   51.9248   62.9853 C   0  0  0  0  0  0  0  0  0  0  0  0
   52.8628   50.3679   61.6979 N   0  0  0  0  0  0  0  0  0  0  0  0
   53.7108   46.8991   63.9036 O   0  0  0  0  0  0  0  0  0  0  0  0
   53.5567   44.6116   66.5962 C   0  0  0  0  0  0  0  0  0  0  0  0
   53.6737   48.9040   65.0276 N   0  0  0  0  0  0  0  0  0  0  0  0
   51.5414   44.6512   65.3637 C   0  0  0  0  0  0  0  0  0  0  0  0
   54.6147   42.4387   67.1125 N   0  0  0  0  0  0  0  0  0  0  0  0
   52.5536   42.5141   65.8976 C   0  0  0  0  0  0  0  0  0  0  0  0
   53.4256   51.5401   61.8506 C   0  0  0  0  0  0  0  0  0  0  0  0
   52.9807   49.5007   62.6436 C   0  0  0  0  0  0  0  0  0  0  0  0
   54.3211   51.0585   64.0740 C   0  0  0  0  0  0  0  0  0  0  0  0
   52.5351   45.3396   66.0665 C   0  0  0  0  0  0  0  0  0  0  0  0
   53.5742   43.1827   66.5691 C   0  0  0  0  0  0  0  0  0  0  0  0
   53.6728   49.7949   63.9184 C   0  0  0  0  0  0  0  0  0  0  0  0
   51.5702   43.2333   65.2754 C   0  0  0  0  0  0  0  0  0  0  0  0
   53.3738   47.5665   64.8738 C   0  0  0  0  0  0  0  0  0  0  0  0
   56.5199   42.0314   69.0779 C   0  0  0  0  0  0  0  0  0  0  0  0
   55.1846   43.7524   69.3987 C   0  0  0  0  0  0  0  0  0  0  0  0
   56.7118   43.8540   67.8692 C   0  0  0  0  0  0  0  0  0  0  0  0
   56.7236   43.5440   69.3796 C   0  0  0  0  0  0  0  0  0  0  0  0
   55.5772   42.8667   68.1837 C   0  0  0  0  0  0  0  0  0  0  0  0
   55.1843   51.3934   65.2178 C   0  0  0  0  0  0  0  0  0  0  0  0
   57.4933   45.4887   70.6771 C   0  0  0  0  0  0  0  0  0  0  0  0
   52.4880   46.8773   65.9543 C   0  0  0  0  0  0  0  0  0  0  0  0
   57.6755   44.0667   70.4007 C   0  0  0  0  0  0  0  0  0  0  0  0
   50.2668   42.3839   64.4177 Cl  0  0  0  0  0  0  0  0  0  0  0  0
   54.4807   52.9503   62.9470 H   0  0  0  0  0  0  0  0  0  0  0  0
   54.3786   45.1141   67.0998 H   0  0  0  0  0  0  0  0  0  0  0  0
   50.8892   45.2509   64.7285 H   0  0  0  0  0  0  0  0  0  0  0  0
   52.5305   41.4334   65.8510 H   0  0  0  0  0  0  0  0  0  0  0  0
   53.3431   52.2485   61.0362 H   0  0  0  0  0  0  0  0  0  0  0  0
   52.4342   48.5971   62.3727 H   0  0  0  0  0  0  0  0  0  0  0  0
   57.3719   41.5589   68.5742 H   0  0  0  0  0  0  0  0  0  0  0  0
   56.1054   41.3486   69.8348 H   0  0  0  0  0  0  0  0  0  0  0  0
   54.7241   44.7183   69.1754 H   0  0  0  0  0  0  0  0  0  0  0  0
   54.5655   43.2914   70.1712 H   0  0  0  0  0  0  0  0  0  0  0  0
   57.5284   43.3485   67.3466 H   0  0  0  0  0  0  0  0  0  0  0  0
   56.5370   44.8996   67.5921 H   0  0  0  0  0  0  0  0  0  0  0  0
   54.5627   51.5844   66.0982 H   0  0  0  0  0  0  0  0  0  0  0  0
   55.8191   50.5446   65.4977 H   0  0  0  0  0  0  0  0  0  0  0  0
   55.8077   52.2710   65.0441 H   0  0  0  0  0  0  0  0  0  0  0  0
   57.4353   46.0168   69.7203 H   0  0  0  0  0  0  0  0  0  0  0  0
   58.3740   45.7427   71.2772 H   0  0  0  0  0  0  0  0  0  0  0  0
   56.6044   45.6875   71.2779 H   0  0  0  0  0  0  0  0  0  0  0  0
   51.4597   47.1962   65.7902 H   0  0  0  0  0  0  0  0  0  0  0  0
   52.8058   47.3070   66.9104 H   0  0  0  0  0  0  0  0  0  0  0  0
   57.4282   43.4737   71.2799 H   0  0  0  0  0  0  0  0  0  0  0  0
   58.6674   43.8428   69.9941 H   0  0  0  0  0  0  0  0  0  0  0  0
   53.5326   49.2439   65.9875 H   0  0  0  0  0  0  0  0  0  0  0  0
   54.4244   41.4381   67.0692 H   0  0  0  0  0  0  0  0  0  0  0  0
  1  9  1  0  0  0  0
  1 11  1  0  0  0  0
  1 27  1  0  0  0  0
  4 12  1  0  0  0  0
  4 13  1  0  0  0  0
  4 28  1  0  0  0  0
  5 49  1  0  0  0  0
  6 12  1  0  0  0  0
  6 15  1  0  0  0  0
  6 29  1  0  0  0  0
  7 50  1  0  0  0  0
  8 13  1  0  0  0  0
  8 15  1  0  0  0  0
  8 30  1  0  0  0  0
  2  9  1  0  0  0  0
  9 31  1  0  0  0  0
  2 10  1  0  0  0  0
 10 14  1  0  0  0  0
 10 32  1  0  0  0  0
 11 14  1  0  0  0  0
 11 22  1  0  0  0  0
 12 24  1  0  0  0  0
  7 13  1  0  0  0  0
  5 14  1  0  0  0  0
 15 26  1  0  0  0  0
  3 16  1  0  0  0  0
  5 16  1  0  0  0  0
 16 24  1  0  0  0  0
 17 20  1  0  0  0  0
 17 21  1  0  0  0  0
 17 33  1  0  0  0  0
 17 34  1  0  0  0  0
 18 20  1  0  0  0  0
 18 21  1  0  0  0  0
 18 35  1  0  0  0  0
 18 36  1  0  0  0  0
 19 20  1  0  0  0  0
 19 21  1  0  0  0  0
 19 37  1  0  0  0  0
 19 38  1  0  0  0  0
 20 25  1  0  0  0  0
  7 21  1  0  0  0  0
 22 39  1  0  0  0  0
 22 40  1  0  0  0  0
 22 41  1  0  0  0  0
 23 25  1  0  0  0  0
 23 42  1  0  0  0  0
 23 43  1  0  0  0  0
 23 44  1  0  0  0  0
 24 45  1  0  0  0  0
 24 46  1  0  0  0  0
 25 47  1  0  0  0  0
 25 48  1  0  0  0  0
M  END
>  <pdb_header>
REMARK   1 CREATED WITH MDTraj 1.9.4, 2020-08-14
CRYST1   96.900   96.900   96.900  90.00  90.00  90.00 P 1           1 


$$$$
EN300-703002-charged-primary_aminebackwards
  PyMOL2.3          3D                             0

 44 45  0  0  0  0  0  0  0  0999 V2000
   56.6492   44.9686   70.1382 C   0  0  0  0  0  0  0  0  0  0  0  0
   53.6482   50.9335   60.1336 N   0  0  0  0  0  0  0  0  0  0  0  0
   51.2582   50.0545   63.2515 O   0  0  0  0  0  0  0  0  0  0  0  0
   56.1671   44.8195   69.0162 C   0  0  0  0  0  0  0  0  0  0  0  0
   53.3386   49.2270   63.4418 N   0  0  0  0  0  0  0  0  0  0  0  0
   55.7196   51.2338   61.3760 C   0  0  0  0  0  0  0  0  0  0  0  0
   54.5175   45.7871   67.6404 N   0  0  0  0  0  0  0  0  0  0  0  0
   53.1098   47.2071   66.5056 C   0  0  0  0  0  0  0  0  0  0  0  0
   51.4581   46.3599   64.9414 C   0  0  0  0  0  0  0  0  0  0  0  0
   52.8471   44.8132   66.1523 C   0  0  0  0  0  0  0  0  0  0  0  0
   54.8874   51.5074   60.3011 C   0  0  0  0  0  0  0  0  0  0  0  0
   53.1328   50.2452   61.1834 C   0  0  0  0  0  0  0  0  0  0  0  0
   55.1782   50.4987   62.4202 C   0  0  0  0  0  0  0  0  0  0  0  0
   52.0619   47.4649   65.5695 C   0  0  0  0  0  0  0  0  0  0  0  0
   53.5344   45.9034   66.7657 C   0  0  0  0  0  0  0  0  0  0  0  0
   53.8885   50.0459   62.3538 C   0  0  0  0  0  0  0  0  0  0  0  0
   51.7853   45.0818   65.3370 C   0  0  0  0  0  0  0  0  0  0  0  0
   52.0270   49.2961   63.8588 C   0  0  0  0  0  0  0  0  0  0  0  0
   56.0261   50.0939   63.6287 C   0  0  0  0  0  0  0  0  0  0  0  0
   58.3843   44.6424   71.8535 C   0  0  0  0  0  0  0  0  0  0  0  0
   57.0008   45.1018   71.5429 C   0  0  0  0  0  0  0  0  0  0  0  0
   55.3401   44.5567   67.8066 C   0  0  0  0  0  0  0  0  0  0  0  0
   51.5685   48.7869   65.2808 C   0  0  0  0  0  0  0  0  0  0  0  0
   51.0719   43.7546   64.4817 Cl  0  0  0  0  0  0  0  0  0  0  0  0
   56.7155   51.6566   61.3830 H   0  0  0  0  0  0  0  0  0  0  0  0
   53.5639   48.0539   67.0218 H   0  0  0  0  0  0  0  0  0  0  0  0
   50.6946   46.5818   64.1994 H   0  0  0  0  0  0  0  0  0  0  0  0
   53.0759   43.7564   66.2759 H   0  0  0  0  0  0  0  0  0  0  0  0
   55.2272   52.0901   59.4565 H   0  0  0  0  0  0  0  0  0  0  0  0
   52.0870   49.9394   61.1825 H   0  0  0  0  0  0  0  0  0  0  0  0
   56.6431   49.2266   63.3895 H   0  0  0  0  0  0  0  0  0  0  0  0
   56.7516   50.8521   63.9382 H   0  0  0  0  0  0  0  0  0  0  0  0
   55.4923   49.8377   64.5444 H   0  0  0  0  0  0  0  0  0  0  0  0
   58.6748   43.9515   71.0592 H   0  0  0  0  0  0  0  0  0  0  0  0
   59.1438   45.4248   71.7400 H   0  0  0  0  0  0  0  0  0  0  0  0
   58.4975   44.1532   72.8273 H   0  0  0  0  0  0  0  0  0  0  0  0
   56.9060   46.1423   71.8691 H   0  0  0  0  0  0  0  0  0  0  0  0
   56.2233   44.5691   72.1106 H   0  0  0  0  0  0  0  0  0  0  0  0
   54.7122   43.6648   67.9002 H   0  0  0  0  0  0  0  0  0  0  0  0
   55.9778   44.4788   66.9135 H   0  0  0  0  0  0  0  0  0  0  0  0
   50.4720   48.8021   65.3342 H   0  0  0  0  0  0  0  0  0  0  0  0
   51.9571   49.4113   66.0923 H   0  0  0  0  0  0  0  0  0  0  0  0
   53.9942   48.6350   63.9525 H   0  0  0  0  0  0  0  0  0  0  0  0
   55.0986   46.6204   67.7411 H   0  0  0  0  0  0  0  0  0  0  0  0
  1  4  1  0  0  0  0
  1 21  1  0  0  0  0
  4 22  1  0  0  0  0
  5 43  1  0  0  0  0
  6 11  1  0  0  0  0
  6 13  1  0  0  0  0
  6 25  1  0  0  0  0
  7 44  1  0  0  0  0
  8 14  1  0  0  0  0
  8 15  1  0  0  0  0
  8 26  1  0  0  0  0
  9 14  1  0  0  0  0
  9 17  1  0  0  0  0
  9 27  1  0  0  0  0
 10 15  1  0  0  0  0
 10 17  1  0  0  0  0
 10 28  1  0  0  0  0
  2 11  1  0  0  0  0
 11 29  1  0  0  0  0
  2 12  1  0  0  0  0
 12 16  1  0  0  0  0
 12 30  1  0  0  0  0
 13 16  1  0  0  0  0
 13 19  1  0  0  0  0
 14 23  1  0  0  0  0
  7 15  1  0  0  0  0
  5 16  1  0  0  0  0
 17 24  1  0  0  0  0
  3 18  1  0  0  0  0
  5 18  1  0  0  0  0
 18 23  1  0  0  0  0
 19 31  1  0  0  0  0
 19 32  1  0  0  0  0
 19 33  1  0  0  0  0
 20 21  1  0  0  0  0
 20 34  1  0  0  0  0
 20 35  1  0  0  0  0
 20 36  1  0  0  0  0
 21 37  1  0  0  0  0
 21 38  1  0  0  0  0
  7 22  1  0  0  0  0
 22 39  1  0  0  0  0
 22 40  1  0  0  0  0
 23 41  1  0  0  0  0
 23 42  1  0  0  0  0
M  END
>  <pdb_header>
REMARK   1 CREATED WITH MDTraj 1.9.4, 2020-08-14
CRYST1   96.864   96.864   96.864  90.00  90.00  90.00 P 1           1 


$$$$
EN300-384108-charged-primary_aminebackwards
  PyMOL2.3          3D                             0

 50 53  0  0  0  0  0  0  0  0999 V2000
   54.7161   50.6401   62.4372 C   0  0  0  0  0  0  0  0  0  0  0  0
   52.6520   50.8659   61.3541 N   0  0  0  0  0  0  0  0  0  0  0  0
   50.3827   49.4302   64.4447 O   0  0  0  0  0  0  0  0  0  0  0  0
   52.3282   46.4245   66.8784 C   0  0  0  0  0  0  0  0  0  0  0  0
   52.3597   48.2832   63.9822 N   0  0  0  0  0  0  0  0  0  0  0  0
   51.5980   45.1736   65.0204 C   0  0  0  0  0  0  0  0  0  0  0  0
   54.2250   45.5758   68.1888 N   0  0  0  0  0  0  0  0  0  0  0  0
   53.3263   44.2389   66.4289 C   0  0  0  0  0  0  0  0  0  0  0  0
   53.8704   51.2606   61.5977 C   0  0  0  0  0  0  0  0  0  0  0  0
   52.1494   49.9052   62.1754 C   0  0  0  0  0  0  0  0  0  0  0  0
   54.2802   49.6428   63.3644 C   0  0  0  0  0  0  0  0  0  0  0  0
   51.4593   46.2822   65.8013 C   0  0  0  0  0  0  0  0  0  0  0  0
   53.2078   45.4281   67.1815 C   0  0  0  0  0  0  0  0  0  0  0  0
   52.9206   49.2457   63.1617 C   0  0  0  0  0  0  0  0  0  0  0  0
   52.4036   44.0737   65.3259 C   0  0  0  0  0  0  0  0  0  0  0  0
   51.1196   48.4460   64.6172 C   0  0  0  0  0  0  0  0  0  0  0  0
   53.6457   46.4569   71.0769 C   0  0  0  0  0  0  0  0  0  0  0  0
   56.1556   48.7902   69.1258 C   0  0  0  0  0  0  0  0  0  0  0  0
   56.8191   47.6281   68.3586 C   0  0  0  0  0  0  0  0  0  0  0  0
   53.1525   47.1832   69.9244 C   0  0  0  0  0  0  0  0  0  0  0  0
   54.9543   46.1319   70.4390 C   0  0  0  0  0  0  0  0  0  0  0  0
   55.2856   47.7445   68.4371 C   0  0  0  0  0  0  0  0  0  0  0  0
   54.4187   46.6851   69.1345 C   0  0  0  0  0  0  0  0  0  0  0  0
   55.1581   49.0562   64.4153 C   0  0  0  0  0  0  0  0  0  0  0  0
   50.4815   47.3294   65.4067 C   0  0  0  0  0  0  0  0  0  0  0  0
   52.4469   42.5798   64.4862 Cl  0  0  0  0  0  0  0  0  0  0  0  0
   55.7493   50.9702   62.4285 H   0  0  0  0  0  0  0  0  0  0  0  0
   52.3668   47.2986   67.5139 H   0  0  0  0  0  0  0  0  0  0  0  0
   51.0191   45.1319   64.1042 H   0  0  0  0  0  0  0  0  0  0  0  0
   53.9350   43.4211   66.8245 H   0  0  0  0  0  0  0  0  0  0  0  0
   54.3716   52.0098   60.9894 H   0  0  0  0  0  0  0  0  0  0  0  0
   51.1191   49.5794   62.0818 H   0  0  0  0  0  0  0  0  0  0  0  0
   53.6762   47.0219   72.0139 H   0  0  0  0  0  0  0  0  0  0  0  0
   52.9973   45.5945   71.2580 H   0  0  0  0  0  0  0  0  0  0  0  0
   56.1935   49.0658   70.1839 H   0  0  0  0  0  0  0  0  0  0  0  0
   56.1627   49.7377   68.5742 H   0  0  0  0  0  0  0  0  0  0  0  0
   57.0401   46.6358   68.7652 H   0  0  0  0  0  0  0  0  0  0  0  0
   57.5275   47.2248   69.0791 H   0  0  0  0  0  0  0  0  0  0  0  0
   52.1841   46.8754   69.5167 H   0  0  0  0  0  0  0  0  0  0  0  0
   53.0790   48.2497   70.1445 H   0  0  0  0  0  0  0  0  0  0  0  0
   55.6742   46.7767   70.9572 H   0  0  0  0  0  0  0  0  0  0  0  0
   55.3101   45.0956   70.4812 H   0  0  0  0  0  0  0  0  0  0  0  0
   54.8083   48.1787   67.5524 H   0  0  0  0  0  0  0  0  0  0  0  0
   56.1635   49.3919   64.1589 H   0  0  0  0  0  0  0  0  0  0  0  0
   54.9234   49.4644   65.4057 H   0  0  0  0  0  0  0  0  0  0  0  0
   55.1587   47.9611   64.4607 H   0  0  0  0  0  0  0  0  0  0  0  0
   49.7238   46.8399   64.7912 H   0  0  0  0  0  0  0  0  0  0  0  0
   50.1257   47.6588   66.3904 H   0  0  0  0  0  0  0  0  0  0  0  0
   52.9697   47.5505   64.3384 H   0  0  0  0  0  0  0  0  0  0  0  0
   55.0693   45.0205   68.0480 H   0  0  0  0  0  0  0  0  0  0  0  0
  1  9  1  0  0  0  0
  1 11  1  0  0  0  0
  1 27  1  0  0  0  0
  4 12  1  0  0  0  0
  4 13  1  0  0  0  0
  4 28  1  0  0  0  0
  5 49  1  0  0  0  0
  6 12  1  0  0  0  0
  6 15  1  0  0  0  0
  6 29  1  0  0  0  0
  7 50  1  0  0  0  0
  8 13  1  0  0  0  0
  8 15  1  0  0  0  0
  8 30  1  0  0  0  0
  2  9  1  0  0  0  0
  9 31  1  0  0  0  0
  2 10  1  0  0  0  0
 10 14  1  0  0  0  0
 10 32  1  0  0  0  0
 11 14  1  0  0  0  0
 11 24  1  0  0  0  0
 12 25  1  0  0  0  0
  7 13  1  0  0  0  0
  5 14  1  0  0  0  0
 15 26  1  0  0  0  0
  3 16  1  0  0  0  0
  5 16  1  0  0  0  0
 16 25  1  0  0  0  0
 17 20  1  0  0  0  0
 17 21  1  0  0  0  0
 17 33  1  0  0  0  0
 17 34  1  0  0  0  0
 18 19  1  0  0  0  0
 18 22  1  0  0  0  0
 18 35  1  0  0  0  0
 18 36  1  0  0  0  0
 19 22  1  0  0  0  0
 19 37  1  0  0  0  0
 19 38  1  0  0  0  0
 20 23  1  0  0  0  0
 20 39  1  0  0  0  0
 20 40  1  0  0  0  0
 21 23  1  0  0  0  0
 21 41  1  0  0  0  0
 21 42  1  0  0  0  0
 22 23  1  0  0  0  0
 22 43  1  0  0  0  0
  7 23  1  0  0  0  0
 24 44  1  0  0  0  0
 24 45  1  0  0  0  0
 24 46  1  0  0  0  0
 25 47  1  0  0  0  0
 25 48  1  0  0  0  0
M  END
>  <pdb_header>
REMARK   1 CREATED WITH MDTraj 1.9.4, 2020-08-14
CRYST1   96.927   96.927   96.927  90.00  90.00  90.00 P 1           1 


$$$$
EN300-312320-charged-primary_aminebackwards
  PyMOL2.3          3D                             0

 56 59  0  0  0  0  0  0  0  0999 V2000
   50.2544   47.5222   71.9687 C   0  0  0  0  0  0  0  0  0  0  0  0
   53.5075   50.8420   61.6669 N   0  0  0  0  0  0  0  0  0  0  0  0
   50.9154   50.1611   64.8982 O   0  0  0  0  0  0  0  0  0  0  0  0
   51.2099   48.5110   72.0974 C   0  0  0  0  0  0  0  0  0  0  0  0
   52.7952   48.8957   64.6031 N   0  0  0  0  0  0  0  0  0  0  0  0
   50.6188   46.5328   71.0271 C   0  0  0  0  0  0  0  0  0  0  0  0
   54.1078   45.3342   68.3837 N   0  0  0  0  0  0  0  0  0  0  0  0
   52.4587   48.4917   71.4459 C   0  0  0  0  0  0  0  0  0  0  0  0
   51.9100   46.5283   70.3514 C   0  0  0  0  0  0  0  0  0  0  0  0
   55.4841   50.7495   62.9564 C   0  0  0  0  0  0  0  0  0  0  0  0
   52.5579   46.4901   66.9703 C   0  0  0  0  0  0  0  0  0  0  0  0
   51.2987   45.5308   65.2078 C   0  0  0  0  0  0  0  0  0  0  0  0
   52.9544   44.2095   66.3666 C   0  0  0  0  0  0  0  0  0  0  0  0
   54.7887   51.1461   61.8650 C   0  0  0  0  0  0  0  0  0  0  0  0
   52.8550   50.1874   62.6205 C   0  0  0  0  0  0  0  0  0  0  0  0
   52.8006   47.5129   70.5209 C   0  0  0  0  0  0  0  0  0  0  0  0
   54.8873   49.9989   64.0108 C   0  0  0  0  0  0  0  0  0  0  0  0
   51.6283   46.6590   65.9786 C   0  0  0  0  0  0  0  0  0  0  0  0
   53.2824   45.3303   67.1877 C   0  0  0  0  0  0  0  0  0  0  0  0
   53.5438   49.6913   63.7428 C   0  0  0  0  0  0  0  0  0  0  0  0
   51.9734   44.3078   65.3985 C   0  0  0  0  0  0  0  0  0  0  0  0
   51.4960   49.0899   65.0623 C   0  0  0  0  0  0  0  0  0  0  0  0
   54.1759   47.6015   69.9172 C   0  0  0  0  0  0  0  0  0  0  0  0
   54.7347   46.5884   68.8635 C   0  0  0  0  0  0  0  0  0  0  0  0
   55.3214   46.6722   70.2854 C   0  0  0  0  0  0  0  0  0  0  0  0
   55.7390   49.6260   65.1962 C   0  0  0  0  0  0  0  0  0  0  0  0
   55.0540   45.4464   71.1840 C   0  0  0  0  0  0  0  0  0  0  0  0
   56.7231   47.2103   70.1845 C   0  0  0  0  0  0  0  0  0  0  0  0
   50.8635   48.0108   65.8533 C   0  0  0  0  0  0  0  0  0  0  0  0
   51.4298   42.9592   64.3663 Cl  0  0  0  0  0  0  0  0  0  0  0  0
   49.3574   47.4771   72.5729 H   0  0  0  0  0  0  0  0  0  0  0  0
   51.0692   49.2140   72.9252 H   0  0  0  0  0  0  0  0  0  0  0  0
   49.8765   45.7898   70.7649 H   0  0  0  0  0  0  0  0  0  0  0  0
   53.2269   49.2387   71.5905 H   0  0  0  0  0  0  0  0  0  0  0  0
   52.1380   45.7743   69.6082 H   0  0  0  0  0  0  0  0  0  0  0  0
   56.5307   51.0432   63.0182 H   0  0  0  0  0  0  0  0  0  0  0  0
   52.6216   47.3331   67.6549 H   0  0  0  0  0  0  0  0  0  0  0  0
   50.4549   45.6254   64.5234 H   0  0  0  0  0  0  0  0  0  0  0  0
   53.3521   43.2317   66.6434 H   0  0  0  0  0  0  0  0  0  0  0  0
   55.3268   51.8025   61.1875 H   0  0  0  0  0  0  0  0  0  0  0  0
   51.8012   50.0323   62.4240 H   0  0  0  0  0  0  0  0  0  0  0  0
   54.4094   48.6268   69.5929 H   0  0  0  0  0  0  0  0  0  0  0  0
   55.1994   47.0722   68.0057 H   0  0  0  0  0  0  0  0  0  0  0  0
   55.3440   49.8604   66.1851 H   0  0  0  0  0  0  0  0  0  0  0  0
   55.9423   48.5525   65.3138 H   0  0  0  0  0  0  0  0  0  0  0  0
   56.7783   49.8947   64.9944 H   0  0  0  0  0  0  0  0  0  0  0  0
   55.9195   44.7737   71.2433 H   0  0  0  0  0  0  0  0  0  0  0  0
   54.2211   44.7680   70.9680 H   0  0  0  0  0  0  0  0  0  0  0  0
   55.0153   45.7796   72.2250 H   0  0  0  0  0  0  0  0  0  0  0  0
   57.1224   47.1474   69.1633 H   0  0  0  0  0  0  0  0  0  0  0  0
   57.2846   46.6525   70.9346 H   0  0  0  0  0  0  0  0  0  0  0  0
   56.7209   48.2390   70.5529 H   0  0  0  0  0  0  0  0  0  0  0  0
   49.9002   47.8723   65.3668 H   0  0  0  0  0  0  0  0  0  0  0  0
   50.5081   48.3823   66.8259 H   0  0  0  0  0  0  0  0  0  0  0  0
   53.2148   48.1059   65.0826 H   0  0  0  0  0  0  0  0  0  0  0  0
   54.5287   44.4666   68.7230 H   0  0  0  0  0  0  0  0  0  0  0  0
  1  4  1  0  0  0  0
  1  6  1  0  0  0  0
  1 31  1  0  0  0  0
  4  8  1  0  0  0  0
  4 32  1  0  0  0  0
  5 55  1  0  0  0  0
  6  9  1  0  0  0  0
  6 33  1  0  0  0  0
  7 56  1  0  0  0  0
  8 16  1  0  0  0  0
  8 34  1  0  0  0  0
  9 16  1  0  0  0  0
  9 35  1  0  0  0  0
 10 14  1  0  0  0  0
 10 17  1  0  0  0  0
 10 36  1  0  0  0  0
 11 18  1  0  0  0  0
 11 19  1  0  0  0  0
 11 37  1  0  0  0  0
 12 18  1  0  0  0  0
 12 21  1  0  0  0  0
 12 38  1  0  0  0  0
 13 19  1  0  0  0  0
 13 21  1  0  0  0  0
 13 39  1  0  0  0  0
  2 14  1  0  0  0  0
 14 40  1  0  0  0  0
  2 15  1  0  0  0  0
 15 20  1  0  0  0  0
 15 41  1  0  0  0  0
 16 23  1  0  0  0  0
 17 20  1  0  0  0  0
 17 26  1  0  0  0  0
 18 29  1  0  0  0  0
  7 19  1  0  0  0  0
  5 20  1  0  0  0  0
 21 30  1  0  0  0  0
  3 22  1  0  0  0  0
  5 22  1  0  0  0  0
 22 29  1  0  0  0  0
 23 24  1  0  0  0  0
 23 25  1  0  0  0  0
 23 42  1  0  0  0  0
  7 24  1  0  0  0  0
 24 25  1  0  0  0  0
 24 43  1  0  0  0  0
 25 27  1  0  0  0  0
 25 28  1  0  0  0  0
 26 44  1  0  0  0  0
 26 45  1  0  0  0  0
 26 46  1  0  0  0  0
 27 47  1  0  0  0  0
 27 48  1  0  0  0  0
 27 49  1  0  0  0  0
 28 50  1  0  0  0  0
 28 51  1  0  0  0  0
 28 52  1  0  0  0  0
 29 53  1  0  0  0  0
 29 54  1  0  0  0  0
M  END
>  <pdb_header>
REMARK   1 CREATED WITH MDTraj 1.9.4, 2020-08-14
CRYST1   96.962   96.962   96.962  90.00  90.00  90.00 P 1           1 


$$$$
EN300-75221-charged-primary_aminebackwards
  PyMOL2.3          3D                             0

 43 44  0  0  0  0  0  0  0  0999 V2000
   58.9560   42.1563   65.9624 C   0  0  0  0  0  0  0  0  0  0  0  0
   59.2477   42.0759   67.0934 N   0  0  0  0  0  0  0  0  0  0  0  0
   54.0531   46.9340   63.8418 O   0  0  0  0  0  0  0  0  0  0  0  0
   53.8641   51.6986   62.9949 C   0  0  0  0  0  0  0  0  0  0  0  0
   52.3372   50.1798   61.9282 N   0  0  0  0  0  0  0  0  0  0  0  0
   54.8583   44.0717   65.6415 C   0  0  0  0  0  0  0  0  0  0  0  0
   53.4747   48.6677   65.1483 N   0  0  0  0  0  0  0  0  0  0  0  0
   52.5478   44.3573   65.3165 C   0  0  0  0  0  0  0  0  0  0  0  0
   55.9628   42.0419   64.9187 N   0  0  0  0  0  0  0  0  0  0  0  0
   53.5766   42.3548   64.7030 C   0  0  0  0  0  0  0  0  0  0  0  0
   53.0423   51.3340   61.9290 C   0  0  0  0  0  0  0  0  0  0  0  0
   52.4354   49.4145   63.0276 C   0  0  0  0  0  0  0  0  0  0  0  0
   54.0517   50.8340   64.0548 C   0  0  0  0  0  0  0  0  0  0  0  0
   53.7527   44.8698   65.6876 C   0  0  0  0  0  0  0  0  0  0  0  0
   54.8190   42.8201   65.0954 C   0  0  0  0  0  0  0  0  0  0  0  0
   53.3155   49.6547   64.0901 C   0  0  0  0  0  0  0  0  0  0  0  0
   52.4486   43.1187   64.7641 C   0  0  0  0  0  0  0  0  0  0  0  0
   53.8311   47.3137   64.9736 C   0  0  0  0  0  0  0  0  0  0  0  0
   55.0307   51.2438   65.1322 C   0  0  0  0  0  0  0  0  0  0  0  0
   57.0085   42.8269   62.9109 C   0  0  0  0  0  0  0  0  0  0  0  0
   58.4681   41.9934   64.5570 C   0  0  0  0  0  0  0  0  0  0  0  0
   53.8936   46.3102   66.1229 C   0  0  0  0  0  0  0  0  0  0  0  0
   57.1658   42.7149   64.3944 C   0  0  0  0  0  0  0  0  0  0  0  0
   50.8909   42.4783   64.1807 Cl  0  0  0  0  0  0  0  0  0  0  0  0
   54.4398   52.6101   62.9284 H   0  0  0  0  0  0  0  0  0  0  0  0
   55.7861   44.4874   66.0170 H   0  0  0  0  0  0  0  0  0  0  0  0
   51.7065   45.0469   65.4174 H   0  0  0  0  0  0  0  0  0  0  0  0
   53.5753   41.3758   64.2356 H   0  0  0  0  0  0  0  0  0  0  0  0
   52.9241   51.9831   61.0611 H   0  0  0  0  0  0  0  0  0  0  0  0
   51.8373   48.5096   63.1153 H   0  0  0  0  0  0  0  0  0  0  0  0
   55.4282   52.2688   65.0914 H   0  0  0  0  0  0  0  0  0  0  0  0
   54.4959   51.1952   66.0927 H   0  0  0  0  0  0  0  0  0  0  0  0
   55.8352   50.5187   65.0221 H   0  0  0  0  0  0  0  0  0  0  0  0
   57.9091   43.3102   62.5013 H   0  0  0  0  0  0  0  0  0  0  0  0
   56.9750   41.8288   62.4718 H   0  0  0  0  0  0  0  0  0  0  0  0
   56.1649   43.4703   62.6700 H   0  0  0  0  0  0  0  0  0  0  0  0
   58.4096   40.9420   64.2587 H   0  0  0  0  0  0  0  0  0  0  0  0
   59.2611   42.3823   63.9116 H   0  0  0  0  0  0  0  0  0  0  0  0
   53.1147   46.6072   66.8401 H   0  0  0  0  0  0  0  0  0  0  0  0
   54.8720   46.4893   66.5874 H   0  0  0  0  0  0  0  0  0  0  0  0
   57.3406   43.7234   64.7823 H   0  0  0  0  0  0  0  0  0  0  0  0
   53.4619   49.0719   66.0893 H   0  0  0  0  0  0  0  0  0  0  0  0
   55.7617   41.0676   64.6762 H   0  0  0  0  0  0  0  0  0  0  0  0
  1  2  1  0  0  0  0
  1 21  1  0  0  0  0
  4 11  1  0  0  0  0
  4 13  1  0  0  0  0
  4 25  1  0  0  0  0
  6 14  1  0  0  0  0
  6 15  1  0  0  0  0
  6 26  1  0  0  0  0
  7 42  1  0  0  0  0
  8 14  1  0  0  0  0
  8 17  1  0  0  0  0
  8 27  1  0  0  0  0
  9 43  1  0  0  0  0
 10 15  1  0  0  0  0
 10 17  1  0  0  0  0
 10 28  1  0  0  0  0
  5 11  1  0  0  0  0
 11 29  1  0  0  0  0
  5 12  1  0  0  0  0
 12 16  1  0  0  0  0
 12 30  1  0  0  0  0
 13 16  1  0  0  0  0
 13 19  1  0  0  0  0
 14 22  1  0  0  0  0
  9 15  1  0  0  0  0
  7 16  1  0  0  0  0
 17 24  1  0  0  0  0
  3 18  1  0  0  0  0
  7 18  1  0  0  0  0
 18 22  1  0  0  0  0
 19 31  1  0  0  0  0
 19 32  1  0  0  0  0
 19 33  1  0  0  0  0
 20 23  1  0  0  0  0
 20 34  1  0  0  0  0
 20 35  1  0  0  0  0
 20 36  1  0  0  0  0
 21 23  1  0  0  0  0
 21 37  1  0  0  0  0
 21 38  1  0  0  0  0
 22 39  1  0  0  0  0
 22 40  1  0  0  0  0
  9 23  1  0  0  0  0
 23 41  1  0  0  0  0
M  END
>  <pdb_header>
REMARK   1 CREATED WITH MDTraj 1.9.4, 2020-08-14
CRYST1   96.925   96.925   96.925  90.00  90.00  90.00 P 1           1 


$$$$
EN300-59896-charged-primary_aminebackwards
  PyMOL2.3          3D                             0

 43 44  0  0  0  0  0  0  0  0999 V2000
   58.3743   44.0200   63.2150 C   0  0  0  0  0  0  0  0  0  0  0  0
   58.6714   43.2517   62.3669 N   0  0  0  0  0  0  0  0  0  0  0  0
   54.7411   48.2252   63.9811 O   0  0  0  0  0  0  0  0  0  0  0  0
   54.4381   53.1016   62.6958 C   0  0  0  0  0  0  0  0  0  0  0  0
   53.4782   51.3583   61.4001 N   0  0  0  0  0  0  0  0  0  0  0  0
   55.1187   45.7966   65.6786 C   0  0  0  0  0  0  0  0  0  0  0  0
   54.0894   50.1993   64.9144 N   0  0  0  0  0  0  0  0  0  0  0  0
   52.6778   45.6469   65.5857 C   0  0  0  0  0  0  0  0  0  0  0  0
   56.4131   43.7080   65.3760 N   0  0  0  0  0  0  0  0  0  0  0  0
   54.0314   43.6868   65.1868 C   0  0  0  0  0  0  0  0  0  0  0  0
   53.9950   52.5877   61.5025 C   0  0  0  0  0  0  0  0  0  0  0  0
   53.4360   50.6079   62.5438 C   0  0  0  0  0  0  0  0  0  0  0  0
   54.5775   52.3102   63.8124 C   0  0  0  0  0  0  0  0  0  0  0  0
   53.8330   46.4345   65.8237 C   0  0  0  0  0  0  0  0  0  0  0  0
   55.2004   44.4164   65.4089 C   0  0  0  0  0  0  0  0  0  0  0  0
   53.9843   51.0285   63.7966 C   0  0  0  0  0  0  0  0  0  0  0  0
   52.7646   44.3233   65.2462 C   0  0  0  0  0  0  0  0  0  0  0  0
   54.2129   48.7780   64.9498 C   0  0  0  0  0  0  0  0  0  0  0  0
   55.3998   52.7932   65.0171 C   0  0  0  0  0  0  0  0  0  0  0  0
   58.8515   43.5354   66.1503 C   0  0  0  0  0  0  0  0  0  0  0  0
   58.1643   44.9982   64.2283 C   0  0  0  0  0  0  0  0  0  0  0  0
   53.6320   47.9154   66.1076 C   0  0  0  0  0  0  0  0  0  0  0  0
   57.7539   44.3612   65.5157 C   0  0  0  0  0  0  0  0  0  0  0  0
   51.3529   43.4520   64.7337 Cl  0  0  0  0  0  0  0  0  0  0  0  0
   54.7514   54.1420   62.6328 H   0  0  0  0  0  0  0  0  0  0  0  0
   56.0346   46.3587   65.8278 H   0  0  0  0  0  0  0  0  0  0  0  0
   51.7028   46.1184   65.5298 H   0  0  0  0  0  0  0  0  0  0  0  0
   54.0520   42.6371   64.9113 H   0  0  0  0  0  0  0  0  0  0  0  0
   54.0855   53.2372   60.6359 H   0  0  0  0  0  0  0  0  0  0  0  0
   53.0919   49.5766   62.5158 H   0  0  0  0  0  0  0  0  0  0  0  0
   54.7682   52.7674   65.9114 H   0  0  0  0  0  0  0  0  0  0  0  0
   56.3177   52.2041   65.0751 H   0  0  0  0  0  0  0  0  0  0  0  0
   55.7362   53.8378   64.9148 H   0  0  0  0  0  0  0  0  0  0  0  0
   58.6272   42.9447   67.0461 H   0  0  0  0  0  0  0  0  0  0  0  0
   59.2064   42.8702   65.3600 H   0  0  0  0  0  0  0  0  0  0  0  0
   59.6846   44.2202   66.2969 H   0  0  0  0  0  0  0  0  0  0  0  0
   57.3268   45.6113   63.8946 H   0  0  0  0  0  0  0  0  0  0  0  0
   59.1075   45.5317   64.4237 H   0  0  0  0  0  0  0  0  0  0  0  0
   52.6323   48.3189   66.2842 H   0  0  0  0  0  0  0  0  0  0  0  0
   54.1468   47.9728   67.0705 H   0  0  0  0  0  0  0  0  0  0  0  0
   57.5990   45.1737   66.2310 H   0  0  0  0  0  0  0  0  0  0  0  0
   53.8763   50.6024   65.8263 H   0  0  0  0  0  0  0  0  0  0  0  0
   56.2846   42.8965   64.7712 H   0  0  0  0  0  0  0  0  0  0  0  0
  1  2  1  0  0  0  0
  1 21  1  0  0  0  0
  4 11  1  0  0  0  0
  4 13  1  0  0  0  0
  4 25  1  0  0  0  0
  6 14  1  0  0  0  0
  6 15  1  0  0  0  0
  6 26  1  0  0  0  0
  7 42  1  0  0  0  0
  8 14  1  0  0  0  0
  8 17  1  0  0  0  0
  8 27  1  0  0  0  0
  9 43  1  0  0  0  0
 10 15  1  0  0  0  0
 10 17  1  0  0  0  0
 10 28  1  0  0  0  0
  5 11  1  0  0  0  0
 11 29  1  0  0  0  0
  5 12  1  0  0  0  0
 12 16  1  0  0  0  0
 12 30  1  0  0  0  0
 13 16  1  0  0  0  0
 13 19  1  0  0  0  0
 14 22  1  0  0  0  0
  9 15  1  0  0  0  0
  7 16  1  0  0  0  0
 17 24  1  0  0  0  0
  3 18  1  0  0  0  0
  7 18  1  0  0  0  0
 18 22  1  0  0  0  0
 19 31  1  0  0  0  0
 19 32  1  0  0  0  0
 19 33  1  0  0  0  0
 20 23  1  0  0  0  0
 20 34  1  0  0  0  0
 20 35  1  0  0  0  0
 20 36  1  0  0  0  0
 21 23  1  0  0  0  0
 21 37  1  0  0  0  0
 21 38  1  0  0  0  0
 22 39  1  0  0  0  0
 22 40  1  0  0  0  0
  9 23  1  0  0  0  0
 23 41  1  0  0  0  0
M  END
>  <pdb_header>
REMARK   1 CREATED WITH MDTraj 1.9.4, 2020-08-14
CRYST1   96.850   96.850   96.850  90.00  90.00  90.00 P 1           1 


$$$$
EN300-262200-charged-primary_aminebackwards
  PyMOL2.3          3D                             0

 44 47  0  0  0  0  0  0  0  0999 V2000
   54.3123   52.2342   62.8923 C   0  0  0  0  0  0  0  0  0  0  0  0
   52.9392   51.1618   61.1820 N   0  0  0  0  0  0  0  0  0  0  0  0
   53.9736   47.5669   63.6535 O   0  0  0  0  0  0  0  0  0  0  0  0
   53.7225   44.9877   65.5314 C   0  0  0  0  0  0  0  0  0  0  0  0
   52.6199   49.2842   64.3572 N   0  0  0  0  0  0  0  0  0  0  0  0
   51.4162   44.9315   64.8005 C   0  0  0  0  0  0  0  0  0  0  0  0
   55.0358   43.0412   65.5538 N   0  0  0  0  0  0  0  0  0  0  0  0
   52.8145   42.9623   64.8555 C   0  0  0  0  0  0  0  0  0  0  0  0
   53.7584   52.1502   61.6033 C   0  0  0  0  0  0  0  0  0  0  0  0
   52.5076   50.2653   62.1029 C   0  0  0  0  0  0  0  0  0  0  0  0
   53.9574   51.3050   63.8666 C   0  0  0  0  0  0  0  0  0  0  0  0
   52.4965   45.6816   65.3019 C   0  0  0  0  0  0  0  0  0  0  0  0
   53.8919   43.6656   65.2703 C   0  0  0  0  0  0  0  0  0  0  0  0
   53.0142   50.2626   63.4370 C   0  0  0  0  0  0  0  0  0  0  0  0
   51.5648   43.5344   64.6153 C   0  0  0  0  0  0  0  0  0  0  0  0
   53.0777   47.9869   64.3920 C   0  0  0  0  0  0  0  0  0  0  0  0
   57.2069   44.6565   65.0929 C   0  0  0  0  0  0  0  0  0  0  0  0
   57.5928   42.4936   64.9968 C   0  0  0  0  0  0  0  0  0  0  0  0
   56.4864   43.4742   63.4450 C   0  0  0  0  0  0  0  0  0  0  0  0
   56.3442   43.3890   64.9720 C   0  0  0  0  0  0  0  0  0  0  0  0
   57.8895   43.6860   64.1176 C   0  0  0  0  0  0  0  0  0  0  0  0
   54.4304   51.4463   65.2717 C   0  0  0  0  0  0  0  0  0  0  0  0
   52.4620   47.1422   65.5588 C   0  0  0  0  0  0  0  0  0  0  0  0
   50.3830   42.6758   63.5915 Cl  0  0  0  0  0  0  0  0  0  0  0  0
   58.9472   43.8990   63.2495 F   0  0  0  0  0  0  0  0  0  0  0  0
   54.9135   53.1079   63.1275 H   0  0  0  0  0  0  0  0  0  0  0  0
   54.5629   45.5611   65.9284 H   0  0  0  0  0  0  0  0  0  0  0  0
   50.4644   45.3664   64.4920 H   0  0  0  0  0  0  0  0  0  0  0  0
   52.7751   41.8882   64.7279 H   0  0  0  0  0  0  0  0  0  0  0  0
   54.0670   52.8028   60.7848 H   0  0  0  0  0  0  0  0  0  0  0  0
   51.8068   49.4745   61.8538 H   0  0  0  0  0  0  0  0  0  0  0  0
   57.6463   44.7813   66.0956 H   0  0  0  0  0  0  0  0  0  0  0  0
   56.8293   45.5946   64.6793 H   0  0  0  0  0  0  0  0  0  0  0  0
   58.1317   42.5349   65.9457 H   0  0  0  0  0  0  0  0  0  0  0  0
   57.4935   41.5412   64.4657 H   0  0  0  0  0  0  0  0  0  0  0  0
   56.3315   42.6014   62.7952 H   0  0  0  0  0  0  0  0  0  0  0  0
   56.1649   44.4030   62.9769 H   0  0  0  0  0  0  0  0  0  0  0  0
   53.5735   51.5085   65.9485 H   0  0  0  0  0  0  0  0  0  0  0  0
   55.1166   50.6617   65.6129 H   0  0  0  0  0  0  0  0  0  0  0  0
   54.8325   52.4566   65.3539 H   0  0  0  0  0  0  0  0  0  0  0  0
   51.4492   47.4707   65.8204 H   0  0  0  0  0  0  0  0  0  0  0  0
   52.9316   47.3398   66.5270 H   0  0  0  0  0  0  0  0  0  0  0  0
   52.0193   49.4939   65.1548 H   0  0  0  0  0  0  0  0  0  0  0  0
   54.9285   42.0342   65.6439 H   0  0  0  0  0  0  0  0  0  0  0  0
  1  9  1  0  0  0  0
  1 11  1  0  0  0  0
  1 26  1  0  0  0  0
  4 12  1  0  0  0  0
  4 13  1  0  0  0  0
  4 27  1  0  0  0  0
  5 43  1  0  0  0  0
  6 12  1  0  0  0  0
  6 15  1  0  0  0  0
  6 28  1  0  0  0  0
  7 44  1  0  0  0  0
  8 13  1  0  0  0  0
  8 15  1  0  0  0  0
  8 29  1  0  0  0  0
  2  9  1  0  0  0  0
  9 30  1  0  0  0  0
  2 10  1  0  0  0  0
 10 14  1  0  0  0  0
 10 31  1  0  0  0  0
 11 14  1  0  0  0  0
 11 22  1  0  0  0  0
 12 23  1  0  0  0  0
  7 13  1  0  0  0  0
  5 14  1  0  0  0  0
 15 24  1  0  0  0  0
  3 16  1  0  0  0  0
  5 16  1  0  0  0  0
 16 23  1  0  0  0  0
 17 20  1  0  0  0  0
 17 21  1  0  0  0  0
 17 32  1  0  0  0  0
 17 33  1  0  0  0  0
 18 20  1  0  0  0  0
 18 21  1  0  0  0  0
 18 34  1  0  0  0  0
 18 35  1  0  0  0  0
 19 20  1  0  0  0  0
 19 21  1  0  0  0  0
 19 36  1  0  0  0  0
 19 37  1  0  0  0  0
  7 20  1  0  0  0  0
 21 25  1  0  0  0  0
 22 38  1  0  0  0  0
 22 39  1  0  0  0  0
 22 40  1  0  0  0  0
 23 41  1  0  0  0  0
 23 42  1  0  0  0  0
M  END
>  <pdb_header>
REMARK   1 CREATED WITH MDTraj 1.9.4, 2020-08-14
CRYST1   96.931   96.931   96.931  90.00  90.00  90.00 P 1           1 


$$$$
EN300-7430703-charged-primary_aminebackwards
  PyMOL2.3          3D                             0

 48 50  0  0  0  0  0  0  0  0999 V2000
   58.0861   43.3768   63.9501 C   0  0  0  0  0  0  0  0  0  0  0  0
   53.5051   50.6062   62.6922 N   0  0  0  0  0  0  0  0  0  0  0  0
   54.2370   46.9565   64.3076 O   0  0  0  0  0  0  0  0  0  0  0  0
   56.7437   43.1385   64.1705 C   0  0  0  0  0  0  0  0  0  0  0  0
   57.0842   41.3623   65.7088 N   0  0  0  0  0  0  0  0  0  0  0  0
   54.8719   51.8479   64.2196 C   0  0  0  0  0  0  0  0  0  0  0  0
   54.9427   41.8209   65.1429 N   0  0  0  0  0  0  0  0  0  0  0  0
   54.0236   44.0163   65.8382 C   0  0  0  0  0  0  0  0  0  0  0  0
   54.0013   48.6160   65.7053 N   0  0  0  0  0  0  0  0  0  0  0  0
   51.8002   44.4209   65.2290 C   0  0  0  0  0  0  0  0  0  0  0  0
   52.7384   42.3202   64.6795 C   0  0  0  0  0  0  0  0  0  0  0  0
   54.2402   51.6607   62.9879 C   0  0  0  0  0  0  0  0  0  0  0  0
   58.3943   41.6745   65.6461 C   0  0  0  0  0  0  0  0  0  0  0  0
   53.4349   49.6526   63.5551 C   0  0  0  0  0  0  0  0  0  0  0  0
   58.9325   42.6343   64.7269 C   0  0  0  0  0  0  0  0  0  0  0  0
   54.6613   50.8827   65.1962 C   0  0  0  0  0  0  0  0  0  0  0  0
   52.9592   44.8728   65.8661 C   0  0  0  0  0  0  0  0  0  0  0  0
   53.9292   42.7387   65.1942 C   0  0  0  0  0  0  0  0  0  0  0  0
   54.0131   49.7074   64.7968 C   0  0  0  0  0  0  0  0  0  0  0  0
   51.6887   43.2080   64.5898 C   0  0  0  0  0  0  0  0  0  0  0  0
   56.2893   42.1086   64.9591 C   0  0  0  0  0  0  0  0  0  0  0  0
   53.7831   47.3025   65.3724 C   0  0  0  0  0  0  0  0  0  0  0  0
   55.3611   51.0735   66.5600 C   0  0  0  0  0  0  0  0  0  0  0  0
   60.8917   42.0434   63.4716 C   0  0  0  0  0  0  0  0  0  0  0  0
   53.1318   46.3125   66.3562 C   0  0  0  0  0  0  0  0  0  0  0  0
   60.3675   42.8271   64.6583 C   0  0  0  0  0  0  0  0  0  0  0  0
   50.4078   42.8683   63.5885 Cl  0  0  0  0  0  0  0  0  0  0  0  0
   60.9252   42.3317   65.8637 F   0  0  0  0  0  0  0  0  0  0  0  0
   60.6770   44.1578   64.6081 F   0  0  0  0  0  0  0  0  0  0  0  0
   58.5885   44.1200   63.3408 H   0  0  0  0  0  0  0  0  0  0  0  0
   56.0428   43.6841   63.5444 H   0  0  0  0  0  0  0  0  0  0  0  0
   55.5508   52.6369   64.5168 H   0  0  0  0  0  0  0  0  0  0  0  0
   54.9275   44.2025   66.3932 H   0  0  0  0  0  0  0  0  0  0  0  0
   50.9550   45.0767   65.0795 H   0  0  0  0  0  0  0  0  0  0  0  0
   52.6036   41.3900   64.1286 H   0  0  0  0  0  0  0  0  0  0  0  0
   54.3366   52.4479   62.2508 H   0  0  0  0  0  0  0  0  0  0  0  0
   58.9421   41.0405   66.3325 H   0  0  0  0  0  0  0  0  0  0  0  0
   52.9498   48.7383   63.2029 H   0  0  0  0  0  0  0  0  0  0  0  0
   56.0161   50.1992   66.6191 H   0  0  0  0  0  0  0  0  0  0  0  0
   55.8648   52.0305   66.6970 H   0  0  0  0  0  0  0  0  0  0  0  0
   54.6741   51.0027   67.4082 H   0  0  0  0  0  0  0  0  0  0  0  0
   61.9464   42.2737   63.3083 H   0  0  0  0  0  0  0  0  0  0  0  0
   60.3445   42.3436   62.5774 H   0  0  0  0  0  0  0  0  0  0  0  0
   60.8222   40.9569   63.5691 H   0  0  0  0  0  0  0  0  0  0  0  0
   52.1085   46.5637   66.6853 H   0  0  0  0  0  0  0  0  0  0  0  0
   53.6913   46.3514   67.2884 H   0  0  0  0  0  0  0  0  0  0  0  0
   54.6846   40.8661   65.3955 H   0  0  0  0  0  0  0  0  0  0  0  0
   53.7023   48.8546   66.6460 H   0  0  0  0  0  0  0  0  0  0  0  0
  1  4  1  0  0  0  0
  1 15  1  0  0  0  0
  1 30  1  0  0  0  0
  4 21  1  0  0  0  0
  4 31  1  0  0  0  0
  6 12  1  0  0  0  0
  6 16  1  0  0  0  0
  6 32  1  0  0  0  0
  7 47  1  0  0  0  0
  8 17  1  0  0  0  0
  8 18  1  0  0  0  0
  8 33  1  0  0  0  0
  9 48  1  0  0  0  0
 10 17  1  0  0  0  0
 10 20  1  0  0  0  0
 10 34  1  0  0  0  0
 11 18  1  0  0  0  0
 11 20  1  0  0  0  0
 11 35  1  0  0  0  0
  2 12  1  0  0  0  0
 12 36  1  0  0  0  0
  5 13  1  0  0  0  0
 13 15  1  0  0  0  0
 13 37  1  0  0  0  0
  2 14  1  0  0  0  0
 14 19  1  0  0  0  0
 14 38  1  0  0  0  0
 15 26  1  0  0  0  0
 16 19  1  0  0  0  0
 16 23  1  0  0  0  0
 17 25  1  0  0  0  0
  7 18  1  0  0  0  0
  9 19  1  0  0  0  0
 20 27  1  0  0  0  0
  5 21  1  0  0  0  0
  7 21  1  0  0  0  0
  3 22  1  0  0  0  0
  9 22  1  0  0  0  0
 22 25  1  0  0  0  0
 23 39  1  0  0  0  0
 23 40  1  0  0  0  0
 23 41  1  0  0  0  0
 24 26  1  0  0  0  0
 24 42  1  0  0  0  0
 24 43  1  0  0  0  0
 24 44  1  0  0  0  0
 25 45  1  0  0  0  0
 25 46  1  0  0  0  0
 26 28  1  0  0  0  0
 26 29  1  0  0  0  0
M  END
>  <pdb_header>
REMARK   1 CREATED WITH MDTraj 1.9.4, 2020-08-14
CRYST1   96.860   96.860   96.860  90.00  90.00  90.00 P 1           1 


$$$$
EN300-262201-charged-primary_aminebackwards
  PyMOL2.3          3D                             0

 44 47  0  0  0  0  0  0  0  0999 V2000
   54.8863   51.6628   62.3118 C   0  0  0  0  0  0  0  0  0  0  0  0
   53.0066   50.3069   62.3842 N   0  0  0  0  0  0  0  0  0  0  0  0
   54.5424   47.1015   64.2051 O   0  0  0  0  0  0  0  0  0  0  0  0
   54.3037   45.5242   66.7718 C   0  0  0  0  0  0  0  0  0  0  0  0
   55.5402   48.9691   64.7279 N   0  0  0  0  0  0  0  0  0  0  0  0
   55.3921   47.1150   68.2132 C   0  0  0  0  0  0  0  0  0  0  0  0
   52.3068   44.3898   67.5478 N   0  0  0  0  0  0  0  0  0  0  0  0
   53.4528   45.9623   68.9823 C   0  0  0  0  0  0  0  0  0  0  0  0
   53.5973   51.3377   61.8563 C   0  0  0  0  0  0  0  0  0  0  0  0
   53.6082   49.6013   63.2850 C   0  0  0  0  0  0  0  0  0  0  0  0
   55.4818   50.9944   63.3661 C   0  0  0  0  0  0  0  0  0  0  0  0
   55.3578   46.4399   66.9909 C   0  0  0  0  0  0  0  0  0  0  0  0
   53.3184   45.2463   67.7574 C   0  0  0  0  0  0  0  0  0  0  0  0
   54.8966   49.8444   63.8221 C   0  0  0  0  0  0  0  0  0  0  0  0
   54.4904   46.8120   69.2232 C   0  0  0  0  0  0  0  0  0  0  0  0
   55.3645   47.6212   64.8977 C   0  0  0  0  0  0  0  0  0  0  0  0
   51.6535   44.4935   64.8997 C   0  0  0  0  0  0  0  0  0  0  0  0
   52.9043   42.7864   65.5185 C   0  0  0  0  0  0  0  0  0  0  0  0
   50.8220   42.9470   66.0868 C   0  0  0  0  0  0  0  0  0  0  0  0
   52.0520   43.8702   66.2609 C   0  0  0  0  0  0  0  0  0  0  0  0
   51.6152   42.9710   64.7839 C   0  0  0  0  0  0  0  0  0  0  0  0
   56.8316   51.4269   63.9126 C   0  0  0  0  0  0  0  0  0  0  0  0
   56.2191   46.8829   65.8372 C   0  0  0  0  0  0  0  0  0  0  0  0
   54.4966   47.7911   70.6781 Cl  0  0  0  0  0  0  0  0  0  0  0  0
   51.2089   42.3306   63.6537 F   0  0  0  0  0  0  0  0  0  0  0  0
   55.3523   52.5382   61.8792 H   0  0  0  0  0  0  0  0  0  0  0  0
   54.3637   45.0785   65.7829 H   0  0  0  0  0  0  0  0  0  0  0  0
   55.9837   47.9923   68.4272 H   0  0  0  0  0  0  0  0  0  0  0  0
   52.7456   45.8330   69.8081 H   0  0  0  0  0  0  0  0  0  0  0  0
   53.0174   51.8830   61.1106 H   0  0  0  0  0  0  0  0  0  0  0  0
   53.0676   48.7359   63.6634 H   0  0  0  0  0  0  0  0  0  0  0  0
   50.6909   45.0168   64.8683 H   0  0  0  0  0  0  0  0  0  0  0  0
   52.3818   45.0165   64.2756 H   0  0  0  0  0  0  0  0  0  0  0  0
   53.7696   43.0537   64.9045 H   0  0  0  0  0  0  0  0  0  0  0  0
   52.9391   41.8550   66.0894 H   0  0  0  0  0  0  0  0  0  0  0  0
   49.8004   43.3092   66.2067 H   0  0  0  0  0  0  0  0  0  0  0  0
   50.8567   42.0264   66.6857 H   0  0  0  0  0  0  0  0  0  0  0  0
   57.5528   50.6187   63.7886 H   0  0  0  0  0  0  0  0  0  0  0  0
   57.2630   52.2917   63.3945 H   0  0  0  0  0  0  0  0  0  0  0  0
   56.7232   51.5056   64.9931 H   0  0  0  0  0  0  0  0  0  0  0  0
   56.9662   47.5943   66.2089 H   0  0  0  0  0  0  0  0  0  0  0  0
   56.8155   46.1199   65.3378 H   0  0  0  0  0  0  0  0  0  0  0  0
   56.3922   49.3949   65.0818 H   0  0  0  0  0  0  0  0  0  0  0  0
   51.4260   44.5548   68.0448 H   0  0  0  0  0  0  0  0  0  0  0  0
  1  9  1  0  0  0  0
  1 11  1  0  0  0  0
  1 26  1  0  0  0  0
  4 12  1  0  0  0  0
  4 13  1  0  0  0  0
  4 27  1  0  0  0  0
  5 43  1  0  0  0  0
  6 12  1  0  0  0  0
  6 15  1  0  0  0  0
  6 28  1  0  0  0  0
  7 44  1  0  0  0  0
  8 13  1  0  0  0  0
  8 15  1  0  0  0  0
  8 29  1  0  0  0  0
  2  9  1  0  0  0  0
  9 30  1  0  0  0  0
  2 10  1  0  0  0  0
 10 14  1  0  0  0  0
 10 31  1  0  0  0  0
 11 14  1  0  0  0  0
 11 22  1  0  0  0  0
 12 23  1  0  0  0  0
  7 13  1  0  0  0  0
  5 14  1  0  0  0  0
 15 24  1  0  0  0  0
  3 16  1  0  0  0  0
  5 16  1  0  0  0  0
 16 23  1  0  0  0  0
 17 20  1  0  0  0  0
 17 21  1  0  0  0  0
 17 32  1  0  0  0  0
 17 33  1  0  0  0  0
 18 20  1  0  0  0  0
 18 21  1  0  0  0  0
 18 34  1  0  0  0  0
 18 35  1  0  0  0  0
 19 20  1  0  0  0  0
 19 21  1  0  0  0  0
 19 36  1  0  0  0  0
 19 37  1  0  0  0  0
  7 20  1  0  0  0  0
 21 25  1  0  0  0  0
 22 38  1  0  0  0  0
 22 39  1  0  0  0  0
 22 40  1  0  0  0  0
 23 41  1  0  0  0  0
 23 42  1  0  0  0  0
M  END
>  <pdb_header>
REMARK   1 CREATED WITH MDTraj 1.9.4, 2020-08-14
CRYST1   96.964   96.964   96.964  90.00  90.00  90.00 P 1           1 


$$$$
EN300-131018-charged-primary_aminebackwards
  PyMOL2.3          3D                             0

 46 47  0  0  0  0  0  0  0  0999 V2000
   59.2272   42.7379   65.5949 C   0  0  0  0  0  0  0  0  0  0  0  0
   59.4928   42.2473   66.5949 N   0  0  0  0  0  0  0  0  0  0  0  0
   54.6572   47.6606   63.5379 O   0  0  0  0  0  0  0  0  0  0  0  0
   54.8396   52.5765   62.9824 C   0  0  0  0  0  0  0  0  0  0  0  0
   53.5646   51.1563   61.5167 N   0  0  0  0  0  0  0  0  0  0  0  0
   55.0081   45.1079   65.3275 C   0  0  0  0  0  0  0  0  0  0  0  0
   54.1659   49.4542   64.7398 N   0  0  0  0  0  0  0  0  0  0  0  0
   52.6344   44.8662   64.9870 C   0  0  0  0  0  0  0  0  0  0  0  0
   56.5363   43.3009   64.9013 N   0  0  0  0  0  0  0  0  0  0  0  0
   54.1648   42.9800   64.7599 C   0  0  0  0  0  0  0  0  0  0  0  0
   54.2340   52.3244   61.7371 C   0  0  0  0  0  0  0  0  0  0  0  0
   53.5130   50.2652   62.4831 C   0  0  0  0  0  0  0  0  0  0  0  0
   54.8052   51.6127   64.0001 C   0  0  0  0  0  0  0  0  0  0  0  0
   53.7041   45.6715   65.3612 C   0  0  0  0  0  0  0  0  0  0  0  0
   55.2778   43.8089   64.9893 C   0  0  0  0  0  0  0  0  0  0  0  0
   54.1800   50.4207   63.7310 C   0  0  0  0  0  0  0  0  0  0  0  0
   52.8387   43.4986   64.7237 C   0  0  0  0  0  0  0  0  0  0  0  0
   54.0608   48.1144   64.4694 C   0  0  0  0  0  0  0  0  0  0  0  0
   55.3373   51.9048   65.3461 C   0  0  0  0  0  0  0  0  0  0  0  0
   58.9578   42.2633   63.1541 C   0  0  0  0  0  0  0  0  0  0  0  0
   60.1797   44.2809   63.9473 C   0  0  0  0  0  0  0  0  0  0  0  0
   53.5769   47.1901   65.6058 C   0  0  0  0  0  0  0  0  0  0  0  0
   57.6457   44.1803   64.3982 C   0  0  0  0  0  0  0  0  0  0  0  0
   58.9592   43.3309   64.2980 C   0  0  0  0  0  0  0  0  0  0  0  0
   51.5279   42.3902   64.4809 Cl  0  0  0  0  0  0  0  0  0  0  0  0
   55.3021   53.4954   63.3387 H   0  0  0  0  0  0  0  0  0  0  0  0
   55.7896   45.8245   65.5555 H   0  0  0  0  0  0  0  0  0  0  0  0
   51.6032   45.2120   64.9155 H   0  0  0  0  0  0  0  0  0  0  0  0
   54.2924   41.9102   64.5968 H   0  0  0  0  0  0  0  0  0  0  0  0
   54.2460   53.0784   60.9603 H   0  0  0  0  0  0  0  0  0  0  0  0
   53.0524   49.2988   62.2812 H   0  0  0  0  0  0  0  0  0  0  0  0
   54.4962   51.9657   66.0473 H   0  0  0  0  0  0  0  0  0  0  0  0
   56.1441   51.1905   65.4956 H   0  0  0  0  0  0  0  0  0  0  0  0
   55.8653   52.8506   65.4611 H   0  0  0  0  0  0  0  0  0  0  0  0
   58.9933   42.6341   62.1272 H   0  0  0  0  0  0  0  0  0  0  0  0
   58.0421   41.6616   63.2797 H   0  0  0  0  0  0  0  0  0  0  0  0
   59.7647   41.5404   63.2505 H   0  0  0  0  0  0  0  0  0  0  0  0
   60.2331   44.9736   64.7908 H   0  0  0  0  0  0  0  0  0  0  0  0
   59.9596   44.8444   63.0391 H   0  0  0  0  0  0  0  0  0  0  0  0
   61.1197   43.7113   64.0173 H   0  0  0  0  0  0  0  0  0  0  0  0
   52.5290   47.3242   65.8677 H   0  0  0  0  0  0  0  0  0  0  0  0
   54.0957   47.3491   66.5594 H   0  0  0  0  0  0  0  0  0  0  0  0
   57.3072   44.6705   63.4903 H   0  0  0  0  0  0  0  0  0  0  0  0
   57.7548   45.0022   65.1137 H   0  0  0  0  0  0  0  0  0  0  0  0
   54.1362   49.6962   65.7295 H   0  0  0  0  0  0  0  0  0  0  0  0
   56.4863   42.3241   64.6174 H   0  0  0  0  0  0  0  0  0  0  0  0
  1  2  1  0  0  0  0
  1 24  1  0  0  0  0
  4 11  1  0  0  0  0
  4 13  1  0  0  0  0
  4 26  1  0  0  0  0
  6 14  1  0  0  0  0
  6 15  1  0  0  0  0
  6 27  1  0  0  0  0
  7 45  1  0  0  0  0
  8 14  1  0  0  0  0
  8 17  1  0  0  0  0
  8 28  1  0  0  0  0
  9 46  1  0  0  0  0
 10 15  1  0  0  0  0
 10 17  1  0  0  0  0
 10 29  1  0  0  0  0
  5 11  1  0  0  0  0
 11 30  1  0  0  0  0
  5 12  1  0  0  0  0
 12 16  1  0  0  0  0
 12 31  1  0  0  0  0
 13 16  1  0  0  0  0
 13 19  1  0  0  0  0
 14 22  1  0  0  0  0
  9 15  1  0  0  0  0
  7 16  1  0  0  0  0
 17 25  1  0  0  0  0
  3 18  1  0  0  0  0
  7 18  1  0  0  0  0
 18 22  1  0  0  0  0
 19 32  1  0  0  0  0
 19 33  1  0  0  0  0
 19 34  1  0  0  0  0
 20 24  1  0  0  0  0
 20 35  1  0  0  0  0
 20 36  1  0  0  0  0
 20 37  1  0  0  0  0
 21 24  1  0  0  0  0
 21 38  1  0  0  0  0
 21 39  1  0  0  0  0
 21 40  1  0  0  0  0
 22 41  1  0  0  0  0
 22 42  1  0  0  0  0
  9 23  1  0  0  0  0
 23 24  1  0  0  0  0
 23 43  1  0  0  0  0
 23 44  1  0  0  0  0
M  END
>  <pdb_header>
REMARK   1 CREATED WITH MDTraj 1.9.4, 2020-08-14
CRYST1   96.862   96.862   96.862  90.00  90.00  90.00 P 1           1 


$$$$
EN300-352243-charged-primary_aminebackwards
  PyMOL2.3          3D                             0

 41 43  0  0  0  0  0  0  0  0999 V2000
   55.1124   51.8161   62.8213 C   0  0  0  0  0  0  0  0  0  0  0  0
   53.1770   50.6882   62.0571 N   0  0  0  0  0  0  0  0  0  0  0  0
   59.6359   42.8656   65.3207 O   0  0  0  0  0  0  0  0  0  0  0  0
   55.2061   45.3897   65.2061 C   0  0  0  0  0  0  0  0  0  0  0  0
   59.4507   42.3823   63.1155 N   0  0  0  0  0  0  0  0  0  0  0  0
   52.3468   48.3658   65.3471 O   0  0  0  0  0  0  0  0  0  0  0  0
   52.9147   44.7595   65.4103 C   0  0  0  0  0  0  0  0  0  0  0  0
   54.5088   48.9465   65.0582 N   0  0  0  0  0  0  0  0  0  0  0  0
   54.5019   43.2052   64.5656 C   0  0  0  0  0  0  0  0  0  0  0  0
   56.8561   43.9169   64.5341 N   0  0  0  0  0  0  0  0  0  0  0  0
   54.0564   51.6897   61.9528 C   0  0  0  0  0  0  0  0  0  0  0  0
   53.3579   49.7834   63.0760 C   0  0  0  0  0  0  0  0  0  0  0  0
   55.2742   50.9586   63.9291 C   0  0  0  0  0  0  0  0  0  0  0  0
   53.9548   45.6679   65.7119 C   0  0  0  0  0  0  0  0  0  0  0  0
   55.5107   44.1384   64.7707 C   0  0  0  0  0  0  0  0  0  0  0  0
   54.3717   49.9325   64.1113 C   0  0  0  0  0  0  0  0  0  0  0  0
   53.1322   43.5737   64.8054 C   0  0  0  0  0  0  0  0  0  0  0  0
   58.9736   42.4569   64.3460 C   0  0  0  0  0  0  0  0  0  0  0  0
   53.5156   48.1848   65.6283 C   0  0  0  0  0  0  0  0  0  0  0  0
   58.2155   42.8049   62.5802 C   0  0  0  0  0  0  0  0  0  0  0  0
   57.5305   42.6925   63.9804 C   0  0  0  0  0  0  0  0  0  0  0  0
   56.3675   51.3195   64.9340 C   0  0  0  0  0  0  0  0  0  0  0  0
   53.7201   46.9574   66.4548 C   0  0  0  0  0  0  0  0  0  0  0  0
   51.7653   42.4523   64.6224 Cl  0  0  0  0  0  0  0  0  0  0  0  0
   55.7384   52.6830   62.6329 H   0  0  0  0  0  0  0  0  0  0  0  0
   56.0104   46.1172   65.1831 H   0  0  0  0  0  0  0  0  0  0  0  0
   51.8914   45.0664   65.6099 H   0  0  0  0  0  0  0  0  0  0  0  0
   54.6597   42.1540   64.3578 H   0  0  0  0  0  0  0  0  0  0  0  0
   54.0396   52.4303   61.1567 H   0  0  0  0  0  0  0  0  0  0  0  0
   52.5796   49.0325   63.1250 H   0  0  0  0  0  0  0  0  0  0  0  0
   57.9060   42.0700   61.8279 H   0  0  0  0  0  0  0  0  0  0  0  0
   58.1983   43.8060   62.1281 H   0  0  0  0  0  0  0  0  0  0  0  0
   57.0148   41.7371   64.0708 H   0  0  0  0  0  0  0  0  0  0  0  0
   57.1260   51.9550   64.4730 H   0  0  0  0  0  0  0  0  0  0  0  0
   55.9106   51.7566   65.8252 H   0  0  0  0  0  0  0  0  0  0  0  0
   56.9044   50.4003   65.1909 H   0  0  0  0  0  0  0  0  0  0  0  0
   52.8891   46.7745   67.1398 H   0  0  0  0  0  0  0  0  0  0  0  0
   54.6222   47.1680   67.0373 H   0  0  0  0  0  0  0  0  0  0  0  0
   60.3752   42.7774   62.9565 H   0  0  0  0  0  0  0  0  0  0  0  0
   55.4489   48.7593   65.4161 H   0  0  0  0  0  0  0  0  0  0  0  0
   57.5087   44.6788   64.7133 H   0  0  0  0  0  0  0  0  0  0  0  0
  1 11  1  0  0  0  0
  1 13  1  0  0  0  0
  1 25  1  0  0  0  0
  4 14  1  0  0  0  0
  4 15  1  0  0  0  0
  4 26  1  0  0  0  0
  5 39  1  0  0  0  0
  7 14  1  0  0  0  0
  7 17  1  0  0  0  0
  7 27  1  0  0  0  0
  8 40  1  0  0  0  0
  9 15  1  0  0  0  0
  9 17  1  0  0  0  0
  9 28  1  0  0  0  0
 10 41  1  0  0  0  0
  2 11  1  0  0  0  0
 11 29  1  0  0  0  0
  2 12  1  0  0  0  0
 12 16  1  0  0  0  0
 12 30  1  0  0  0  0
 13 16  1  0  0  0  0
 13 22  1  0  0  0  0
 14 23  1  0  0  0  0
 10 15  1  0  0  0  0
  8 16  1  0  0  0  0
 17 24  1  0  0  0  0
  3 18  1  0  0  0  0
  5 18  1  0  0  0  0
 18 21  1  0  0  0  0
  6 19  1  0  0  0  0
  8 19  1  0  0  0  0
 19 23  1  0  0  0  0
  5 20  1  0  0  0  0
 20 21  1  0  0  0  0
 20 31  1  0  0  0  0
 20 32  1  0  0  0  0
 10 21  1  0  0  0  0
 21 33  1  0  0  0  0
 22 34  1  0  0  0  0
 22 35  1  0  0  0  0
 22 36  1  0  0  0  0
 23 37  1  0  0  0  0
 23 38  1  0  0  0  0
M  END
>  <pdb_header>
REMARK   1 CREATED WITH MDTraj 1.9.4, 2020-08-14
CRYST1   96.828   96.828   96.828  90.00  90.00  90.00 P 1           1 


$$$$
EN300-321398-charged-primary_aminebackwards
  PyMOL2.3          3D                             0

 46 48  0  0  0  0  0  0  0  0999 V2000
   55.3733   50.5949   62.3129 C   0  0  0  0  0  0  0  0  0  0  0  0
   53.2321   50.8864   61.2443 N   0  0  0  0  0  0  0  0  0  0  0  0
   56.5814   45.3513   65.3508 O   0  0  0  0  0  0  0  0  0  0  0  0
   53.2174   47.0358   66.8178 C   0  0  0  0  0  0  0  0  0  0  0  0
   52.8411   48.7026   64.1996 N   0  0  0  0  0  0  0  0  0  0  0  0
   50.9025   49.8374   64.4918 O   0  0  0  0  0  0  0  0  0  0  0  0
   51.8291   45.4244   65.6104 C   0  0  0  0  0  0  0  0  0  0  0  0
   55.4510   46.4559   67.5999 N   0  0  0  0  0  0  0  0  0  0  0  0
   58.8278   45.0973   68.6257 O   0  0  0  0  0  0  0  0  0  0  0  0
   53.8851   44.7475   66.4818 C   0  0  0  0  0  0  0  0  0  0  0  0
   54.5426   51.1736   61.3474 C   0  0  0  0  0  0  0  0  0  0  0  0
   52.6459   50.1232   62.2297 C   0  0  0  0  0  0  0  0  0  0  0  0
   54.8392   49.6735   63.1885 C   0  0  0  0  0  0  0  0  0  0  0  0
   52.0185   46.7488   66.1227 C   0  0  0  0  0  0  0  0  0  0  0  0
   54.2082   46.0196   66.9979 C   0  0  0  0  0  0  0  0  0  0  0  0
   53.4573   49.5325   63.2324 C   0  0  0  0  0  0  0  0  0  0  0  0
   52.6501   44.4195   65.8595 C   0  0  0  0  0  0  0  0  0  0  0  0
   57.1452   45.0146   66.3421 C   0  0  0  0  0  0  0  0  0  0  0  0
   51.5843   48.8750   64.7713 C   0  0  0  0  0  0  0  0  0  0  0  0
   58.4654   44.2648   66.3456 C   0  0  0  0  0  0  0  0  0  0  0  0
   59.4119   45.1165   67.3306 C   0  0  0  0  0  0  0  0  0  0  0  0
   57.6998   45.9207   68.6163 C   0  0  0  0  0  0  0  0  0  0  0  0
   56.5558   45.4919   67.7026 C   0  0  0  0  0  0  0  0  0  0  0  0
   55.7846   48.7533   64.0311 C   0  0  0  0  0  0  0  0  0  0  0  0
   51.0202   47.8173   65.7461 C   0  0  0  0  0  0  0  0  0  0  0  0
   52.3414   42.8254   65.1776 Cl  0  0  0  0  0  0  0  0  0  0  0  0
   56.4482   50.6235   62.4583 H   0  0  0  0  0  0  0  0  0  0  0  0
   53.4237   48.0207   67.2298 H   0  0  0  0  0  0  0  0  0  0  0  0
   50.9339   45.1305   65.0591 H   0  0  0  0  0  0  0  0  0  0  0  0
   54.5808   43.9253   66.6576 H   0  0  0  0  0  0  0  0  0  0  0  0
   54.9843   51.8418   60.6033 H   0  0  0  0  0  0  0  0  0  0  0  0
   51.5623   50.0692   62.0931 H   0  0  0  0  0  0  0  0  0  0  0  0
   58.4214   43.2171   66.6604 H   0  0  0  0  0  0  0  0  0  0  0  0
   58.8386   44.3815   65.3272 H   0  0  0  0  0  0  0  0  0  0  0  0
   59.5410   46.1354   66.9483 H   0  0  0  0  0  0  0  0  0  0  0  0
   60.3813   44.6237   67.3884 H   0  0  0  0  0  0  0  0  0  0  0  0
   58.0413   46.9304   68.3945 H   0  0  0  0  0  0  0  0  0  0  0  0
   57.4024   45.9696   69.6652 H   0  0  0  0  0  0  0  0  0  0  0  0
   56.1986   44.5538   68.1379 H   0  0  0  0  0  0  0  0  0  0  0  0
   55.6575   48.9280   65.1116 H   0  0  0  0  0  0  0  0  0  0  0  0
   55.7430   47.6885   63.7779 H   0  0  0  0  0  0  0  0  0  0  0  0
   56.8363   48.9408   63.8182 H   0  0  0  0  0  0  0  0  0  0  0  0
   50.1790   47.4416   65.1480 H   0  0  0  0  0  0  0  0  0  0  0  0
   50.6740   48.3857   66.6116 H   0  0  0  0  0  0  0  0  0  0  0  0
   53.4028   47.9562   64.6207 H   0  0  0  0  0  0  0  0  0  0  0  0
   55.5301   47.3397   68.0936 H   0  0  0  0  0  0  0  0  0  0  0  0
  1 11  1  0  0  0  0
  1 13  1  0  0  0  0
  1 27  1  0  0  0  0
  4 14  1  0  0  0  0
  4 15  1  0  0  0  0
  4 28  1  0  0  0  0
  5 45  1  0  0  0  0
  7 14  1  0  0  0  0
  7 17  1  0  0  0  0
  7 29  1  0  0  0  0
  8 46  1  0  0  0  0
 10 15  1  0  0  0  0
 10 17  1  0  0  0  0
 10 30  1  0  0  0  0
  2 11  1  0  0  0  0
 11 31  1  0  0  0  0
  2 12  1  0  0  0  0
 12 16  1  0  0  0  0
 12 32  1  0  0  0  0
 13 16  1  0  0  0  0
 13 24  1  0  0  0  0
 14 25  1  0  0  0  0
  8 15  1  0  0  0  0
  5 16  1  0  0  0  0
 17 26  1  0  0  0  0
  3 18  1  0  0  0  0
 18 20  1  0  0  0  0
 18 23  1  0  0  0  0
  5 19  1  0  0  0  0
  6 19  1  0  0  0  0
 19 25  1  0  0  0  0
 20 21  1  0  0  0  0
 20 33  1  0  0  0  0
 20 34  1  0  0  0  0
  9 21  1  0  0  0  0
 21 35  1  0  0  0  0
 21 36  1  0  0  0  0
  9 22  1  0  0  0  0
 22 23  1  0  0  0  0
 22 37  1  0  0  0  0
 22 38  1  0  0  0  0
  8 23  1  0  0  0  0
 23 39  1  0  0  0  0
 24 40  1  0  0  0  0
 24 41  1  0  0  0  0
 24 42  1  0  0  0  0
 25 43  1  0  0  0  0
 25 44  1  0  0  0  0
M  END
>  <pdb_header>
REMARK   1 CREATED WITH MDTraj 1.9.4, 2020-08-14
CRYST1   96.914   96.914   96.914  90.00  90.00  90.00 P 1           1 


$$$$
EN300-6736658-charged-primary_aminebackwards
  PyMOL2.3          3D                             0

 50 53  0  0  0  0  0  0  0  0999 V2000
   54.6247   51.0934   62.6745 C   0  0  0  0  0  0  0  0  0  0  0  0
   52.5277   50.7748   61.6393 N   0  0  0  0  0  0  0  0  0  0  0  0
   50.6448   49.2594   65.2389 O   0  0  0  0  0  0  0  0  0  0  0  0
   57.5897   43.8927   66.4925 C   0  0  0  0  0  0  0  0  0  0  0  0
   59.5995   44.7345   65.7320 N   0  0  0  0  0  0  0  0  0  0  0  0
   52.9454   45.3458   65.6308 C   0  0  0  0  0  0  0  0  0  0  0  0
   58.8487   44.1605   64.7374 N   0  0  0  0  0  0  0  0  0  0  0  0
   50.6270   44.9152   64.8809 C   0  0  0  0  0  0  0  0  0  0  0  0
   52.7501   48.6094   64.6920 N   0  0  0  0  0  0  0  0  0  0  0  0
   52.3129   43.2762   64.5911 C   0  0  0  0  0  0  0  0  0  0  0  0
   54.6776   43.7130   65.3612 N   0  0  0  0  0  0  0  0  0  0  0  0
   53.7416   51.2688   61.6103 C   0  0  0  0  0  0  0  0  0  0  0  0
   58.8294   44.6493   66.8035 C   0  0  0  0  0  0  0  0  0  0  0  0
   52.2607   49.9423   62.6511 C   0  0  0  0  0  0  0  0  0  0  0  0
   54.3624   50.2303   63.7243 C   0  0  0  0  0  0  0  0  0  0  0  0
   51.6201   45.7706   65.4606 C   0  0  0  0  0  0  0  0  0  0  0  0
   53.3299   44.0650   65.1510 C   0  0  0  0  0  0  0  0  0  0  0  0
   53.1019   49.5627   63.7405 C   0  0  0  0  0  0  0  0  0  0  0  0
   50.9685   43.6556   64.4342 C   0  0  0  0  0  0  0  0  0  0  0  0
   57.7092   43.4797   65.2071 C   0  0  0  0  0  0  0  0  0  0  0  0
   51.4743   48.3349   65.2164 C   0  0  0  0  0  0  0  0  0  0  0  0
   56.0570   42.9203   63.3634 C   0  0  0  0  0  0  0  0  0  0  0  0
   56.8403   42.4573   64.5668 C   0  0  0  0  0  0  0  0  0  0  0  0
   55.2912   42.6082   64.6677 C   0  0  0  0  0  0  0  0  0  0  0  0
   55.3623   50.0486   64.7846 C   0  0  0  0  0  0  0  0  0  0  0  0
   59.2675   44.1551   63.3476 C   0  0  0  0  0  0  0  0  0  0  0  0
   51.1375   47.0984   66.0275 C   0  0  0  0  0  0  0  0  0  0  0  0
   49.7054   42.6688   63.7774 Cl  0  0  0  0  0  0  0  0  0  0  0  0
   55.5581   51.6610   62.6138 H   0  0  0  0  0  0  0  0  0  0  0  0
   56.8098   43.6344   67.1993 H   0  0  0  0  0  0  0  0  0  0  0  0
   53.7727   45.9583   65.9777 H   0  0  0  0  0  0  0  0  0  0  0  0
   49.6147   45.2492   64.6930 H   0  0  0  0  0  0  0  0  0  0  0  0
   52.4770   42.2853   64.1672 H   0  0  0  0  0  0  0  0  0  0  0  0
   53.9856   51.9950   60.8424 H   0  0  0  0  0  0  0  0  0  0  0  0
   59.0951   45.0735   67.7702 H   0  0  0  0  0  0  0  0  0  0  0  0
   51.2532   49.5228   62.6141 H   0  0  0  0  0  0  0  0  0  0  0  0
   56.1674   43.9746   63.1032 H   0  0  0  0  0  0  0  0  0  0  0  0
   55.9249   42.2535   62.5058 H   0  0  0  0  0  0  0  0  0  0  0  0
   57.2041   41.4280   64.6609 H   0  0  0  0  0  0  0  0  0  0  0  0
   54.7546   41.6498   64.6797 H   0  0  0  0  0  0  0  0  0  0  0  0
   56.3771   49.7668   64.4612 H   0  0  0  0  0  0  0  0  0  0  0  0
   55.5958   51.0457   65.1844 H   0  0  0  0  0  0  0  0  0  0  0  0
   55.0228   49.3685   65.5648 H   0  0  0  0  0  0  0  0  0  0  0  0
   60.0216   44.9301   63.1499 H   0  0  0  0  0  0  0  0  0  0  0  0
   59.7246   43.1958   63.1070 H   0  0  0  0  0  0  0  0  0  0  0  0
   58.3951   44.3213   62.7117 H   0  0  0  0  0  0  0  0  0  0  0  0
   50.0459   47.0937   66.1350 H   0  0  0  0  0  0  0  0  0  0  0  0
   51.3155   47.2208   67.1098 H   0  0  0  0  0  0  0  0  0  0  0  0
   53.4965   47.9080   64.7176 H   0  0  0  0  0  0  0  0  0  0  0  0
   55.3380   44.3748   65.7794 H   0  0  0  0  0  0  0  0  0  0  0  0
  1 12  1  0  0  0  0
  1 15  1  0  0  0  0
  1 29  1  0  0  0  0
  4 13  1  0  0  0  0
  4 20  1  0  0  0  0
  4 30  1  0  0  0  0
  5  7  1  0  0  0  0
  6 16  1  0  0  0  0
  6 17  1  0  0  0  0
  6 31  1  0  0  0  0
  8 16  1  0  0  0  0
  8 19  1  0  0  0  0
  8 32  1  0  0  0  0
  9 49  1  0  0  0  0
 10 17  1  0  0  0  0
 10 19  1  0  0  0  0
 10 33  1  0  0  0  0
 11 50  1  0  0  0  0
  2 12  1  0  0  0  0
 12 34  1  0  0  0  0
  5 13  1  0  0  0  0
 13 35  1  0  0  0  0
  2 14  1  0  0  0  0
 14 18  1  0  0  0  0
 14 36  1  0  0  0  0
 15 18  1  0  0  0  0
 15 25  1  0  0  0  0
 16 27  1  0  0  0  0
 11 17  1  0  0  0  0
  9 18  1  0  0  0  0
 19 28  1  0  0  0  0
  7 20  1  0  0  0  0
 20 23  1  0  0  0  0
  3 21  1  0  0  0  0
  9 21  1  0  0  0  0
 21 27  1  0  0  0  0
 22 23  1  0  0  0  0
 22 24  1  0  0  0  0
 22 37  1  0  0  0  0
 22 38  1  0  0  0  0
 23 24  1  0  0  0  0
 23 39  1  0  0  0  0
 11 24  1  0  0  0  0
 24 40  1  0  0  0  0
 25 41  1  0  0  0  0
 25 42  1  0  0  0  0
 25 43  1  0  0  0  0
  7 26  1  0  0  0  0
 26 44  1  0  0  0  0
 26 45  1  0  0  0  0
 26 46  1  0  0  0  0
 27 47  1  0  0  0  0
 27 48  1  0  0  0  0
M  END
>  <pdb_header>
REMARK   1 CREATED WITH MDTraj 1.9.4, 2020-08-14
CRYST1   96.822   96.822   96.822  90.00  90.00  90.00 P 1           1 


$$$$
EN300-344955-charged-primary_aminebackwards
  PyMOL2.3          3D                             0

 41 43  0  0  0  0  0  0  0  0999 V2000
   53.0250   49.6419   62.6422 C   0  0  0  0  0  0  0  0  0  0  0  0
   50.6980   49.0313   62.5540 N   0  0  0  0  0  0  0  0  0  0  0  0
   50.5661   46.9198   66.3191 O   0  0  0  0  0  0  0  0  0  0  0  0
   53.4801   43.3750   66.4856 C   0  0  0  0  0  0  0  0  0  0  0  0
   56.5144   43.2108   65.6474 N   0  0  0  0  0  0  0  0  0  0  0  0
   51.3615   43.8532   65.3645 C   0  0  0  0  0  0  0  0  0  0  0  0
   56.8407   40.9090   65.0721 N   0  0  0  0  0  0  0  0  0  0  0  0
   52.6180   41.7617   64.9484 C   0  0  0  0  0  0  0  0  0  0  0  0
   54.8283   41.5056   65.8806 N   0  0  0  0  0  0  0  0  0  0  0  0
   51.7444   49.6995   62.0718 C   0  0  0  0  0  0  0  0  0  0  0  0
   52.6336   47.2731   65.3071 N   0  0  0  0  0  0  0  0  0  0  0  0
   50.9488   48.2247   63.6063 C   0  0  0  0  0  0  0  0  0  0  0  0
   57.6956   43.5007   65.0656 C   0  0  0  0  0  0  0  0  0  0  0  0
   57.9965   41.2532   64.5151 C   0  0  0  0  0  0  0  0  0  0  0  0
   53.2429   49.0240   63.8733 C   0  0  0  0  0  0  0  0  0  0  0  0
   52.3470   44.1926   66.3001 C   0  0  0  0  0  0  0  0  0  0  0  0
   53.6697   42.2289   65.7381 C   0  0  0  0  0  0  0  0  0  0  0  0
   52.2307   48.2168   64.3193 C   0  0  0  0  0  0  0  0  0  0  0  0
   58.4280   42.4806   64.3813 C   0  0  0  0  0  0  0  0  0  0  0  0
   51.4630   42.5848   64.7852 C   0  0  0  0  0  0  0  0  0  0  0  0
   56.0963   41.9195   65.5438 C   0  0  0  0  0  0  0  0  0  0  0  0
   51.7915   46.6908   66.2090 C   0  0  0  0  0  0  0  0  0  0  0  0
   54.6302   49.1194   64.4847 C   0  0  0  0  0  0  0  0  0  0  0  0
   52.2321   45.5273   67.0711 C   0  0  0  0  0  0  0  0  0  0  0  0
   50.2119   42.1440   63.7021 Cl  0  0  0  0  0  0  0  0  0  0  0  0
   59.5191   42.7622   63.6855 F   0  0  0  0  0  0  0  0  0  0  0  0
   53.8860   50.1309   62.1919 H   0  0  0  0  0  0  0  0  0  0  0  0
   54.2468   43.6749   67.1832 H   0  0  0  0  0  0  0  0  0  0  0  0
   50.5819   44.5651   65.1073 H   0  0  0  0  0  0  0  0  0  0  0  0
   52.6562   40.8493   64.3735 H   0  0  0  0  0  0  0  0  0  0  0  0
   51.6335   50.3067   61.1744 H   0  0  0  0  0  0  0  0  0  0  0  0
   50.2350   47.4492   63.8702 H   0  0  0  0  0  0  0  0  0  0  0  0
   58.0888   44.5071   65.1732 H   0  0  0  0  0  0  0  0  0  0  0  0
   58.8018   40.5320   64.4527 H   0  0  0  0  0  0  0  0  0  0  0  0
   54.9783   50.1588   64.5308 H   0  0  0  0  0  0  0  0  0  0  0  0
   54.7241   48.7784   65.5127 H   0  0  0  0  0  0  0  0  0  0  0  0
   55.3930   48.5610   63.9440 H   0  0  0  0  0  0  0  0  0  0  0  0
   51.6033   45.3676   67.9502 H   0  0  0  0  0  0  0  0  0  0  0  0
   53.1438   45.7928   67.6181 H   0  0  0  0  0  0  0  0  0  0  0  0
   54.8200   40.5189   65.6251 H   0  0  0  0  0  0  0  0  0  0  0  0
   53.6004   46.9785   65.4538 H   0  0  0  0  0  0  0  0  0  0  0  0
  1 10  1  0  0  0  0
  1 15  1  0  0  0  0
  1 27  1  0  0  0  0
  4 16  1  0  0  0  0
  4 17  1  0  0  0  0
  4 28  1  0  0  0  0
  6 16  1  0  0  0  0
  6 20  1  0  0  0  0
  6 29  1  0  0  0  0
  8 17  1  0  0  0  0
  8 20  1  0  0  0  0
  8 30  1  0  0  0  0
  9 40  1  0  0  0  0
  2 10  1  0  0  0  0
 10 31  1  0  0  0  0
 11 41  1  0  0  0  0
  2 12  1  0  0  0  0
 12 18  1  0  0  0  0
 12 32  1  0  0  0  0
  5 13  1  0  0  0  0
 13 19  1  0  0  0  0
 13 33  1  0  0  0  0
  7 14  1  0  0  0  0
 14 19  1  0  0  0  0
 14 34  1  0  0  0  0
 15 18  1  0  0  0  0
 15 23  1  0  0  0  0
 16 24  1  0  0  0  0
  9 17  1  0  0  0  0
 11 18  1  0  0  0  0
 19 26  1  0  0  0  0
 20 25  1  0  0  0  0
  5 21  1  0  0  0  0
  7 21  1  0  0  0  0
  9 21  1  0  0  0  0
  3 22  1  0  0  0  0
 11 22  1  0  0  0  0
 22 24  1  0  0  0  0
 23 35  1  0  0  0  0
 23 36  1  0  0  0  0
 23 37  1  0  0  0  0
 24 38  1  0  0  0  0
 24 39  1  0  0  0  0
M  END
>  <pdb_header>
REMARK   1 CREATED WITH MDTraj 1.9.4, 2020-08-14
CRYST1   96.935   96.935   96.935  90.00  90.00  90.00 P 1           1 


$$$$
EN300-363585-charged-primary_aminebackwards
  PyMOL2.3          3D                             0

 60 64  0  0  0  0  0  0  0  0999 V2000
   55.9385   44.6101   70.2070 C   0  0  0  0  0  0  0  0  0  0  0  0
   53.0580   50.3838   61.1932 N   0  0  0  0  0  0  0  0  0  0  0  0
   53.6331   46.9891   63.7964 O   0  0  0  0  0  0  0  0  0  0  0  0
   57.1211   44.7683   69.4405 C   0  0  0  0  0  0  0  0  0  0  0  0
   52.4644   48.7637   64.5236 N   0  0  0  0  0  0  0  0  0  0  0  0
   54.8637   43.9291   69.6227 C   0  0  0  0  0  0  0  0  0  0  0  0
   54.8882   42.4213   65.7101 N   0  0  0  0  0  0  0  0  0  0  0  0
   57.2504   44.2962   68.1226 C   0  0  0  0  0  0  0  0  0  0  0  0
   54.9082   43.4888   68.3144 C   0  0  0  0  0  0  0  0  0  0  0  0
   54.1821   51.6168   62.9803 C   0  0  0  0  0  0  0  0  0  0  0  0
   53.5002   44.3752   65.6362 C   0  0  0  0  0  0  0  0  0  0  0  0
   51.1962   44.1871   64.8173 C   0  0  0  0  0  0  0  0  0  0  0  0
   52.6758   42.3199   64.6948 C   0  0  0  0  0  0  0  0  0  0  0  0
   53.7935   51.4926   61.6618 C   0  0  0  0  0  0  0  0  0  0  0  0
   52.6929   49.4840   62.1225 C   0  0  0  0  0  0  0  0  0  0  0  0
   56.0842   43.6654   67.5332 C   0  0  0  0  0  0  0  0  0  0  0  0
   53.7290   50.7438   64.0021 C   0  0  0  0  0  0  0  0  0  0  0  0
   52.2494   44.9763   65.3832 C   0  0  0  0  0  0  0  0  0  0  0  0
   53.6983   43.0324   65.3683 C   0  0  0  0  0  0  0  0  0  0  0  0
   52.9626   49.6390   63.5386 C   0  0  0  0  0  0  0  0  0  0  0  0
   51.4327   42.8738   64.4272 C   0  0  0  0  0  0  0  0  0  0  0  0
   52.6953   47.3921   64.5159 C   0  0  0  0  0  0  0  0  0  0  0  0
   59.3041   43.1872   63.2790 C   0  0  0  0  0  0  0  0  0  0  0  0
   59.3380   43.3659   64.7951 C   0  0  0  0  0  0  0  0  0  0  0  0
   57.8541   42.6441   63.3492 C   0  0  0  0  0  0  0  0  0  0  0  0
   57.3908   42.1689   65.8409 C   0  0  0  0  0  0  0  0  0  0  0  0
   56.7903   44.0244   65.1340 C   0  0  0  0  0  0  0  0  0  0  0  0
   56.1704   43.0922   66.1495 C   0  0  0  0  0  0  0  0  0  0  0  0
   57.8780   43.0690   64.7701 C   0  0  0  0  0  0  0  0  0  0  0  0
   54.2037   50.8594   65.3595 C   0  0  0  0  0  0  0  0  0  0  0  0
   52.0206   46.4708   65.5626 C   0  0  0  0  0  0  0  0  0  0  0  0
   50.2572   41.9781   63.5942 Cl  0  0  0  0  0  0  0  0  0  0  0  0
   55.9968   44.9165   71.2430 H   0  0  0  0  0  0  0  0  0  0  0  0
   58.0181   45.1845   69.8764 H   0  0  0  0  0  0  0  0  0  0  0  0
   54.0133   43.7010   70.2635 H   0  0  0  0  0  0  0  0  0  0  0  0
   58.1345   44.4951   67.5321 H   0  0  0  0  0  0  0  0  0  0  0  0
   53.9907   43.0911   67.8971 H   0  0  0  0  0  0  0  0  0  0  0  0
   54.7787   52.5205   63.0400 H   0  0  0  0  0  0  0  0  0  0  0  0
   54.2842   44.9955   66.0513 H   0  0  0  0  0  0  0  0  0  0  0  0
   50.2382   44.6263   64.5848 H   0  0  0  0  0  0  0  0  0  0  0  0
   52.9427   41.3095   64.4306 H   0  0  0  0  0  0  0  0  0  0  0  0
   54.1550   52.0744   60.8190 H   0  0  0  0  0  0  0  0  0  0  0  0
   52.1059   48.6367   61.7842 H   0  0  0  0  0  0  0  0  0  0  0  0
   60.0356   42.5111   62.8319 H   0  0  0  0  0  0  0  0  0  0  0  0
   59.2949   44.1268   62.7133 H   0  0  0  0  0  0  0  0  0  0  0  0
   59.5742   44.3898   65.0827 H   0  0  0  0  0  0  0  0  0  0  0  0
   59.9968   42.6653   65.3153 H   0  0  0  0  0  0  0  0  0  0  0  0
   57.2204   43.0871   62.5727 H   0  0  0  0  0  0  0  0  0  0  0  0
   57.7784   41.5563   63.2218 H   0  0  0  0  0  0  0  0  0  0  0  0
   58.0617   42.0256   66.6890 H   0  0  0  0  0  0  0  0  0  0  0  0
   57.1361   41.1712   65.4793 H   0  0  0  0  0  0  0  0  0  0  0  0
   56.1167   44.2908   64.3114 H   0  0  0  0  0  0  0  0  0  0  0  0
   57.2689   44.9518   65.4780 H   0  0  0  0  0  0  0  0  0  0  0  0
   54.5599   49.8559   65.6314 H   0  0  0  0  0  0  0  0  0  0  0  0
   55.0898   51.4919   65.3665 H   0  0  0  0  0  0  0  0  0  0  0  0
   53.4690   51.1694   66.1100 H   0  0  0  0  0  0  0  0  0  0  0  0
   50.9276   46.5744   65.5543 H   0  0  0  0  0  0  0  0  0  0  0  0
   52.2953   46.7954   66.5657 H   0  0  0  0  0  0  0  0  0  0  0  0
   52.0953   49.2161   65.3629 H   0  0  0  0  0  0  0  0  0  0  0  0
   54.8558   41.4169   65.9371 H   0  0  0  0  0  0  0  0  0  0  0  0
  1  4  1  0  0  0  0
  1  6  1  0  0  0  0
  1 33  1  0  0  0  0
  4  8  1  0  0  0  0
  4 34  1  0  0  0  0
  5 59  1  0  0  0  0
  6  9  1  0  0  0  0
  6 35  1  0  0  0  0
  7 60  1  0  0  0  0
  8 16  1  0  0  0  0
  8 36  1  0  0  0  0
  9 16  1  0  0  0  0
  9 37  1  0  0  0  0
 10 14  1  0  0  0  0
 10 17  1  0  0  0  0
 10 38  1  0  0  0  0
 11 18  1  0  0  0  0
 11 19  1  0  0  0  0
 11 39  1  0  0  0  0
 12 18  1  0  0  0  0
 12 21  1  0  0  0  0
 12 40  1  0  0  0  0
 13 19  1  0  0  0  0
 13 21  1  0  0  0  0
 13 41  1  0  0  0  0
  2 14  1  0  0  0  0
 14 42  1  0  0  0  0
  2 15  1  0  0  0  0
 15 20  1  0  0  0  0
 15 43  1  0  0  0  0
 16 28  1  0  0  0  0
 17 20  1  0  0  0  0
 17 30  1  0  0  0  0
 18 31  1  0  0  0  0
  7 19  1  0  0  0  0
  5 20  1  0  0  0  0
 21 32  1  0  0  0  0
  3 22  1  0  0  0  0
  5 22  1  0  0  0  0
 22 31  1  0  0  0  0
 23 24  1  0  0  0  0
 23 25  1  0  0  0  0
 23 44  1  0  0  0  0
 23 45  1  0  0  0  0
 24 29  1  0  0  0  0
 24 46  1  0  0  0  0
 24 47  1  0  0  0  0
 25 29  1  0  0  0  0
 25 48  1  0  0  0  0
 25 49  1  0  0  0  0
 26 28  1  0  0  0  0
 26 29  1  0  0  0  0
 26 50  1  0  0  0  0
 26 51  1  0  0  0  0
 27 28  1  0  0  0  0
 27 29  1  0  0  0  0
 27 52  1  0  0  0  0
 27 53  1  0  0  0  0
  7 28  1  0  0  0  0
 30 54  1  0  0  0  0
 30 55  1  0  0  0  0
 30 56  1  0  0  0  0
 31 57  1  0  0  0  0
 31 58  1  0  0  0  0
M  END
>  <pdb_header>
REMARK   1 CREATED WITH MDTraj 1.9.4, 2020-08-14
CRYST1   96.871   96.871   96.871  90.00  90.00  90.00 P 1           1 


$$$$
EN300-89718-charged-primary_aminebackwards
  PyMOL2.3          3D                             0

 43 45  0  0  0  0  0  0  0  0999 V2000
   54.4605   52.3162   63.0134 C   0  0  0  0  0  0  0  0  0  0  0  0
   52.9346   50.8798   61.7659 N   0  0  0  0  0  0  0  0  0  0  0  0
   54.0382   47.7081   63.9856 O   0  0  0  0  0  0  0  0  0  0  0  0
   54.2365   45.0103   65.5553 C   0  0  0  0  0  0  0  0  0  0  0  0
   53.4656   49.4374   65.1969 N   0  0  0  0  0  0  0  0  0  0  0  0
   51.8453   45.0830   65.6884 C   0  0  0  0  0  0  0  0  0  0  0  0
   55.3627   42.9153   65.0061 N   0  0  0  0  0  0  0  0  0  0  0  0
   52.9744   43.0230   65.2566 C   0  0  0  0  0  0  0  0  0  0  0  0
   53.7330   51.9268   61.8419 C   0  0  0  0  0  0  0  0  0  0  0  0
   52.9418   50.0234   62.8131 C   0  0  0  0  0  0  0  0  0  0  0  0
   54.3690   51.4867   64.2204 C   0  0  0  0  0  0  0  0  0  0  0  0
   53.0689   45.7515   65.7083 C   0  0  0  0  0  0  0  0  0  0  0  0
   54.1831   43.6242   65.2398 C   0  0  0  0  0  0  0  0  0  0  0  0
   53.5560   50.3287   64.0815 C   0  0  0  0  0  0  0  0  0  0  0  0
   51.8471   43.7042   65.4572 C   0  0  0  0  0  0  0  0  0  0  0  0
   53.6207   48.1061   65.0261 C   0  0  0  0  0  0  0  0  0  0  0  0
   57.5078   44.1566   65.6641 C   0  0  0  0  0  0  0  0  0  0  0  0
   58.5868   43.0453   65.3186 C   0  0  0  0  0  0  0  0  0  0  0  0
   56.6803   43.5436   64.5976 C   0  0  0  0  0  0  0  0  0  0  0  0
   57.7577   42.5089   64.2157 C   0  0  0  0  0  0  0  0  0  0  0  0
   55.2706   51.7453   65.3839 C   0  0  0  0  0  0  0  0  0  0  0  0
   53.1565   47.2017   66.0967 C   0  0  0  0  0  0  0  0  0  0  0  0
   50.3473   42.9128   65.3061 Cl  0  0  0  0  0  0  0  0  0  0  0  0
   57.4609   41.1844   64.4129 F   0  0  0  0  0  0  0  0  0  0  0  0
   58.2706   42.7060   62.9569 F   0  0  0  0  0  0  0  0  0  0  0  0
   55.0885   53.2012   63.0253 H   0  0  0  0  0  0  0  0  0  0  0  0
   55.1815   45.5351   65.6088 H   0  0  0  0  0  0  0  0  0  0  0  0
   50.8725   45.5616   65.8135 H   0  0  0  0  0  0  0  0  0  0  0  0
   52.8621   41.9716   64.9995 H   0  0  0  0  0  0  0  0  0  0  0  0
   53.8408   52.5882   60.9890 H   0  0  0  0  0  0  0  0  0  0  0  0
   52.4010   49.0844   62.7666 H   0  0  0  0  0  0  0  0  0  0  0  0
   57.0529   44.1983   66.6542 H   0  0  0  0  0  0  0  0  0  0  0  0
   57.8999   45.1362   65.3689 H   0  0  0  0  0  0  0  0  0  0  0  0
   59.6020   43.3986   65.1403 H   0  0  0  0  0  0  0  0  0  0  0  0
   58.7039   42.3511   66.1646 H   0  0  0  0  0  0  0  0  0  0  0  0
   56.5765   44.2400   63.7557 H   0  0  0  0  0  0  0  0  0  0  0  0
   54.7182   51.5843   66.3142 H   0  0  0  0  0  0  0  0  0  0  0  0
   56.1050   51.0524   65.3135 H   0  0  0  0  0  0  0  0  0  0  0  0
   55.5381   52.8077   65.3995 H   0  0  0  0  0  0  0  0  0  0  0  0
   52.2240   47.6262   66.4850 H   0  0  0  0  0  0  0  0  0  0  0  0
   53.9091   47.3538   66.8782 H   0  0  0  0  0  0  0  0  0  0  0  0
   53.3362   49.8199   66.1377 H   0  0  0  0  0  0  0  0  0  0  0  0
   55.3423   41.8926   64.9701 H   0  0  0  0  0  0  0  0  0  0  0  0
  1  9  1  0  0  0  0
  1 11  1  0  0  0  0
  1 26  1  0  0  0  0
  4 12  1  0  0  0  0
  4 13  1  0  0  0  0
  4 27  1  0  0  0  0
  5 42  1  0  0  0  0
  6 12  1  0  0  0  0
  6 15  1  0  0  0  0
  6 28  1  0  0  0  0
  7 43  1  0  0  0  0
  8 13  1  0  0  0  0
  8 15  1  0  0  0  0
  8 29  1  0  0  0  0
  2  9  1  0  0  0  0
  9 30  1  0  0  0  0
  2 10  1  0  0  0  0
 10 14  1  0  0  0  0
 10 31  1  0  0  0  0
 11 14  1  0  0  0  0
 11 21  1  0  0  0  0
 12 22  1  0  0  0  0
  7 13  1  0  0  0  0
  5 14  1  0  0  0  0
 15 23  1  0  0  0  0
  3 16  1  0  0  0  0
  5 16  1  0  0  0  0
 16 22  1  0  0  0  0
 17 18  1  0  0  0  0
 17 19  1  0  0  0  0
 17 32  1  0  0  0  0
 17 33  1  0  0  0  0
 18 20  1  0  0  0  0
 18 34  1  0  0  0  0
 18 35  1  0  0  0  0
  7 19  1  0  0  0  0
 19 20  1  0  0  0  0
 19 36  1  0  0  0  0
 20 24  1  0  0  0  0
 20 25  1  0  0  0  0
 21 37  1  0  0  0  0
 21 38  1  0  0  0  0
 21 39  1  0  0  0  0
 22 40  1  0  0  0  0
 22 41  1  0  0  0  0
M  END
>  <pdb_header>
REMARK   1 CREATED WITH MDTraj 1.9.4, 2020-08-14
CRYST1   96.879   96.879   96.879  90.00  90.00  90.00 P 1           1 


$$$$
EN300-378161-charged-primary_aminebackwards
  PyMOL2.3          3D                             0

 57 60  0  0  0  0  0  0  0  0999 V2000
   55.5287   50.7400   62.6726 C   0  0  0  0  0  0  0  0  0  0  0  0
   53.5124   51.3528   61.4452 N   0  0  0  0  0  0  0  0  0  0  0  0
   50.9431   50.2838   64.6610 O   0  0  0  0  0  0  0  0  0  0  0  0
   52.5890   46.4911   66.5374 C   0  0  0  0  0  0  0  0  0  0  0  0
   52.7973   49.0760   64.4301 N   0  0  0  0  0  0  0  0  0  0  0  0
   59.1689   45.6788   70.1554 O   0  0  0  0  0  0  0  0  0  0  0  0
   51.2102   45.7119   64.6705 C   0  0  0  0  0  0  0  0  0  0  0  0
   54.3282   45.0316   67.4343 N   0  0  0  0  0  0  0  0  0  0  0  0
   52.9319   44.3379   65.5578 C   0  0  0  0  0  0  0  0  0  0  0  0
   54.8470   51.4834   61.7570 C   0  0  0  0  0  0  0  0  0  0  0  0
   52.8340   50.5772   62.4377 C   0  0  0  0  0  0  0  0  0  0  0  0
   54.8412   49.8851   63.5802 C   0  0  0  0  0  0  0  0  0  0  0  0
   51.5433   46.7599   65.6027 C   0  0  0  0  0  0  0  0  0  0  0  0
   53.3414   45.2991   66.4946 C   0  0  0  0  0  0  0  0  0  0  0  0
   53.4799   49.8428   63.4877 C   0  0  0  0  0  0  0  0  0  0  0  0
   51.9577   44.5043   64.6334 C   0  0  0  0  0  0  0  0  0  0  0  0
   51.5215   49.2319   64.8683 C   0  0  0  0  0  0  0  0  0  0  0  0
   56.7511   45.5757   67.5799 C   0  0  0  0  0  0  0  0  0  0  0  0
   55.6601   46.2761   69.3400 C   0  0  0  0  0  0  0  0  0  0  0  0
   57.3878   44.2172   69.7082 C   0  0  0  0  0  0  0  0  0  0  0  0
   58.1367   46.5473   69.5935 C   0  0  0  0  0  0  0  0  0  0  0  0
   55.2986   46.0565   67.7885 C   0  0  0  0  0  0  0  0  0  0  0  0
   57.0836   45.6533   69.0701 C   0  0  0  0  0  0  0  0  0  0  0  0
   58.5524   44.5182   70.7264 C   0  0  0  0  0  0  0  0  0  0  0  0
   55.6081   49.2308   64.6742 C   0  0  0  0  0  0  0  0  0  0  0  0
   59.4554   43.3380   70.7952 C   0  0  0  0  0  0  0  0  0  0  0  0
   57.8850   44.7572   72.0483 C   0  0  0  0  0  0  0  0  0  0  0  0
   50.8525   48.0792   65.6966 C   0  0  0  0  0  0  0  0  0  0  0  0
   51.5892   43.3081   63.3868 Cl  0  0  0  0  0  0  0  0  0  0  0  0
   56.5763   50.9440   62.8837 H   0  0  0  0  0  0  0  0  0  0  0  0
   52.8376   47.2401   67.2966 H   0  0  0  0  0  0  0  0  0  0  0  0
   50.4543   45.8715   63.9010 H   0  0  0  0  0  0  0  0  0  0  0  0
   53.5020   43.4168   65.5709 H   0  0  0  0  0  0  0  0  0  0  0  0
   55.3361   52.1881   61.0910 H   0  0  0  0  0  0  0  0  0  0  0  0
   51.7526   50.5272   62.2872 H   0  0  0  0  0  0  0  0  0  0  0  0
   56.8385   44.5228   67.3017 H   0  0  0  0  0  0  0  0  0  0  0  0
   57.5166   46.1755   67.0789 H   0  0  0  0  0  0  0  0  0  0  0  0
   55.6978   47.2845   69.7640 H   0  0  0  0  0  0  0  0  0  0  0  0
   55.0794   45.6089   69.9760 H   0  0  0  0  0  0  0  0  0  0  0  0
   56.5505   43.8165   70.2875 H   0  0  0  0  0  0  0  0  0  0  0  0
   57.6032   43.4363   68.9857 H   0  0  0  0  0  0  0  0  0  0  0  0
   57.7921   47.2488   70.3546 H   0  0  0  0  0  0  0  0  0  0  0  0
   58.5348   47.1447   68.7645 H   0  0  0  0  0  0  0  0  0  0  0  0
   55.1435   47.0046   67.2601 H   0  0  0  0  0  0  0  0  0  0  0  0
   55.4536   49.8346   65.5626 H   0  0  0  0  0  0  0  0  0  0  0  0
   55.2164   48.2286   64.8731 H   0  0  0  0  0  0  0  0  0  0  0  0
   56.6808   49.1216   64.4682 H   0  0  0  0  0  0  0  0  0  0  0  0
   59.9911   43.2367   69.8414 H   0  0  0  0  0  0  0  0  0  0  0  0
   58.8612   42.4478   71.0360 H   0  0  0  0  0  0  0  0  0  0  0  0
   60.1166   43.4931   71.6412 H   0  0  0  0  0  0  0  0  0  0  0  0
   57.1299   45.5332   71.9151 H   0  0  0  0  0  0  0  0  0  0  0  0
   58.5394   45.1014   72.8619 H   0  0  0  0  0  0  0  0  0  0  0  0
   57.2916   43.8961   72.3700 H   0  0  0  0  0  0  0  0  0  0  0  0
   49.8074   47.9961   65.3636 H   0  0  0  0  0  0  0  0  0  0  0  0
   50.8768   48.5249   66.6948 H   0  0  0  0  0  0  0  0  0  0  0  0
   53.2984   48.2799   64.8140 H   0  0  0  0  0  0  0  0  0  0  0  0
   54.5249   44.0905   67.7698 H   0  0  0  0  0  0  0  0  0  0  0  0
  1 10  1  0  0  0  0
  1 12  1  0  0  0  0
  1 30  1  0  0  0  0
  4 13  1  0  0  0  0
  4 14  1  0  0  0  0
  4 31  1  0  0  0  0
  5 56  1  0  0  0  0
  7 13  1  0  0  0  0
  7 16  1  0  0  0  0
  7 32  1  0  0  0  0
  8 57  1  0  0  0  0
  9 14  1  0  0  0  0
  9 16  1  0  0  0  0
  9 33  1  0  0  0  0
  2 10  1  0  0  0  0
 10 34  1  0  0  0  0
  2 11  1  0  0  0  0
 11 15  1  0  0  0  0
 11 35  1  0  0  0  0
 12 15  1  0  0  0  0
 12 25  1  0  0  0  0
 13 28  1  0  0  0  0
  8 14  1  0  0  0  0
  5 15  1  0  0  0  0
 16 29  1  0  0  0  0
  3 17  1  0  0  0  0
  5 17  1  0  0  0  0
 17 28  1  0  0  0  0
 18 22  1  0  0  0  0
 18 23  1  0  0  0  0
 18 36  1  0  0  0  0
 18 37  1  0  0  0  0
 19 22  1  0  0  0  0
 19 23  1  0  0  0  0
 19 38  1  0  0  0  0
 19 39  1  0  0  0  0
 20 23  1  0  0  0  0
 20 24  1  0  0  0  0
 20 40  1  0  0  0  0
 20 41  1  0  0  0  0
  6 21  1  0  0  0  0
 21 23  1  0  0  0  0
 21 42  1  0  0  0  0
 21 43  1  0  0  0  0
  8 22  1  0  0  0  0
 22 44  1  0  0  0  0
  6 24  1  0  0  0  0
 24 26  1  0  0  0  0
 24 27  1  0  0  0  0
 25 45  1  0  0  0  0
 25 46  1  0  0  0  0
 25 47  1  0  0  0  0
 26 48  1  0  0  0  0
 26 49  1  0  0  0  0
 26 50  1  0  0  0  0
 27 51  1  0  0  0  0
 27 52  1  0  0  0  0
 27 53  1  0  0  0  0
 28 54  1  0  0  0  0
 28 55  1  0  0  0  0
M  END
>  <pdb_header>
REMARK   1 CREATED WITH MDTraj 1.9.4, 2020-08-14
CRYST1   96.992   96.992   96.992  90.00  90.00  90.00 P 1           1 


$$$$
EN300-26620085-charged-primary_aminebackwards
  PyMOL2.3          3D                             0

 53 59  0  0  0  0  0  0  0  0999 V2000
   48.2753   51.3835   67.2027 C   0  0  0  0  0  0  0  0  0  0  0  0
   50.4402   51.6422   66.2961 N   0  0  0  0  0  0  0  0  0  0  0  0
   51.7574   47.8357   66.1921 O   0  0  0  0  0  0  0  0  0  0  0  0
   53.7479   45.1923   67.1623 C   0  0  0  0  0  0  0  0  0  0  0  0
   50.2452   48.3146   67.7593 N   0  0  0  0  0  0  0  0  0  0  0  0
   51.5010   44.2992   66.9199 C   0  0  0  0  0  0  0  0  0  0  0  0
   55.6446   44.0203   66.3021 N   0  0  0  0  0  0  0  0  0  0  0  0
   53.3326   43.1660   65.8092 C   0  0  0  0  0  0  0  0  0  0  0  0
   49.2964   52.1492   66.6131 C   0  0  0  0  0  0  0  0  0  0  0  0
   50.7582   50.3941   66.6310 C   0  0  0  0  0  0  0  0  0  0  0  0
   48.5151   50.0953   67.5594 C   0  0  0  0  0  0  0  0  0  0  0  0
   52.3671   45.2713   67.4375 C   0  0  0  0  0  0  0  0  0  0  0  0
   54.2141   44.0871   66.3804 C   0  0  0  0  0  0  0  0  0  0  0  0
   49.8508   49.5861   67.3306 C   0  0  0  0  0  0  0  0  0  0  0  0
   51.9601   43.2619   66.1225 C   0  0  0  0  0  0  0  0  0  0  0  0
   51.2757   47.5301   67.2671 C   0  0  0  0  0  0  0  0  0  0  0  0
   60.5069   43.3424   66.3375 C   0  0  0  0  0  0  0  0  0  0  0  0
   59.8350   43.1409   64.9973 C   0  0  0  0  0  0  0  0  0  0  0  0
   59.3224   44.2994   66.7916 C   0  0  0  0  0  0  0  0  0  0  0  0
   59.6902   42.1795   66.9704 C   0  0  0  0  0  0  0  0  0  0  0  0
   58.7233   44.0969   65.3939 C   0  0  0  0  0  0  0  0  0  0  0  0
   58.9661   41.9409   65.6081 C   0  0  0  0  0  0  0  0  0  0  0  0
   58.5485   43.0865   67.3665 C   0  0  0  0  0  0  0  0  0  0  0  0
   57.8633   42.9503   66.0342 C   0  0  0  0  0  0  0  0  0  0  0  0
   47.4841   49.3068   68.3560 C   0  0  0  0  0  0  0  0  0  0  0  0
   56.1517   42.4697   64.2971 C   0  0  0  0  0  0  0  0  0  0  0  0
   51.7812   46.4015   68.1526 C   0  0  0  0  0  0  0  0  0  0  0  0
   56.3131   42.7715   65.8034 C   0  0  0  0  0  0  0  0  0  0  0  0
   50.9570   42.0089   65.5547 Cl  0  0  0  0  0  0  0  0  0  0  0  0
   47.2930   51.8309   67.3007 H   0  0  0  0  0  0  0  0  0  0  0  0
   54.5247   45.8262   67.5764 H   0  0  0  0  0  0  0  0  0  0  0  0
   50.4434   44.4320   67.1457 H   0  0  0  0  0  0  0  0  0  0  0  0
   53.4563   42.3802   65.0751 H   0  0  0  0  0  0  0  0  0  0  0  0
   49.1471   53.2125   66.4291 H   0  0  0  0  0  0  0  0  0  0  0  0
   51.7576   50.0544   66.3839 H   0  0  0  0  0  0  0  0  0  0  0  0
   61.5493   43.5543   66.5875 H   0  0  0  0  0  0  0  0  0  0  0  0
   60.3480   43.0851   64.0346 H   0  0  0  0  0  0  0  0  0  0  0  0
   59.4709   45.2577   67.3107 H   0  0  0  0  0  0  0  0  0  0  0  0
   60.0871   41.4140   67.6387 H   0  0  0  0  0  0  0  0  0  0  0  0
   58.3081   44.9175   64.8076 H   0  0  0  0  0  0  0  0  0  0  0  0
   58.7770   40.9574   65.1775 H   0  0  0  0  0  0  0  0  0  0  0  0
   58.1922   43.0353   68.4007 H   0  0  0  0  0  0  0  0  0  0  0  0
   47.9031   49.1200   69.3534 H   0  0  0  0  0  0  0  0  0  0  0  0
   46.5966   49.8886   68.5788 H   0  0  0  0  0  0  0  0  0  0  0  0
   47.3069   48.3724   67.8193 H   0  0  0  0  0  0  0  0  0  0  0  0
   55.1408   42.3073   63.9208 H   0  0  0  0  0  0  0  0  0  0  0  0
   56.8877   41.7600   63.9144 H   0  0  0  0  0  0  0  0  0  0  0  0
   56.3655   43.4283   63.8231 H   0  0  0  0  0  0  0  0  0  0  0  0
   50.9056   45.9564   68.6334 H   0  0  0  0  0  0  0  0  0  0  0  0
   52.5881   46.7365   68.8172 H   0  0  0  0  0  0  0  0  0  0  0  0
   55.9969   41.8910   66.3569 H   0  0  0  0  0  0  0  0  0  0  0  0
   49.8137   47.9138   68.5949 H   0  0  0  0  0  0  0  0  0  0  0  0
   56.0933   44.6626   66.9495 H   0  0  0  0  0  0  0  0  0  0  0  0
  1  9  1  0  0  0  0
  1 11  1  0  0  0  0
  1 30  1  0  0  0  0
  4 12  1  0  0  0  0
  4 13  1  0  0  0  0
  4 31  1  0  0  0  0
  5 52  1  0  0  0  0
  6 12  1  0  0  0  0
  6 15  1  0  0  0  0
  6 32  1  0  0  0  0
  7 53  1  0  0  0  0
  8 13  1  0  0  0  0
  8 15  1  0  0  0  0
  8 33  1  0  0  0  0
  2  9  1  0  0  0  0
  9 34  1  0  0  0  0
  2 10  1  0  0  0  0
 10 14  1  0  0  0  0
 10 35  1  0  0  0  0
 11 14  1  0  0  0  0
 11 25  1  0  0  0  0
 12 27  1  0  0  0  0
  7 13  1  0  0  0  0
  5 14  1  0  0  0  0
 15 29  1  0  0  0  0
  3 16  1  0  0  0  0
  5 16  1  0  0  0  0
 16 27  1  0  0  0  0
 17 18  1  0  0  0  0
 17 19  1  0  0  0  0
 17 20  1  0  0  0  0
 17 36  1  0  0  0  0
 18 21  1  0  0  0  0
 18 22  1  0  0  0  0
 18 37  1  0  0  0  0
 19 21  1  0  0  0  0
 19 23  1  0  0  0  0
 19 38  1  0  0  0  0
 20 22  1  0  0  0  0
 20 23  1  0  0  0  0
 20 39  1  0  0  0  0
 21 24  1  0  0  0  0
 21 40  1  0  0  0  0
 22 24  1  0  0  0  0
 22 41  1  0  0  0  0
 23 24  1  0  0  0  0
 23 42  1  0  0  0  0
 24 28  1  0  0  0  0
 25 43  1  0  0  0  0
 25 44  1  0  0  0  0
 25 45  1  0  0  0  0
 26 28  1  0  0  0  0
 26 46  1  0  0  0  0
 26 47  1  0  0  0  0
 26 48  1  0  0  0  0
 27 49  1  0  0  0  0
 27 50  1  0  0  0  0
  7 28  1  0  0  0  0
 28 51  1  0  0  0  0
M  END
>  <pdb_header>
REMARK   1 CREATED WITH MDTraj 1.9.4, 2020-08-14
CRYST1   96.928   96.928   96.928  90.00  90.00  90.00 P 1           1 


$$$$
EN300-52283-charged-primary_aminebackwards
  PyMOL2.3          3D                             0

 46 48  0  0  0  0  0  0  0  0999 V2000
   54.6242   50.0625   64.0278 C   0  0  0  0  0  0  0  0  0  0  0  0
   52.2541   50.5711   63.9207 N   0  0  0  0  0  0  0  0  0  0  0  0
   50.6165   47.5462   66.1780 O   0  0  0  0  0  0  0  0  0  0  0  0
   53.2362   43.7745   66.8907 C   0  0  0  0  0  0  0  0  0  0  0  0
   52.8193   47.2544   65.6526 N   0  0  0  0  0  0  0  0  0  0  0  0
   51.2861   43.8468   65.5730 C   0  0  0  0  0  0  0  0  0  0  0  0
   55.0071   42.2174   66.3979 N   0  0  0  0  0  0  0  0  0  0  0  0
   52.9773   42.1628   65.0922 C   0  0  0  0  0  0  0  0  0  0  0  0
   53.5092   50.8939   63.7486 C   0  0  0  0  0  0  0  0  0  0  0  0
   52.0826   49.3263   64.4402 C   0  0  0  0  0  0  0  0  0  0  0  0
   54.4692   48.8166   64.5622 C   0  0  0  0  0  0  0  0  0  0  0  0
   52.0684   44.3955   66.6013 C   0  0  0  0  0  0  0  0  0  0  0  0
   53.7219   42.6068   66.2211 C   0  0  0  0  0  0  0  0  0  0  0  0
   53.1472   48.4081   64.9084 C   0  0  0  0  0  0  0  0  0  0  0  0
   51.7587   42.8027   64.7736 C   0  0  0  0  0  0  0  0  0  0  0  0
   51.6014   46.8822   66.2993 C   0  0  0  0  0  0  0  0  0  0  0  0
   57.3684   41.5564   65.6523 C   0  0  0  0  0  0  0  0  0  0  0  0
   55.8708   41.6078   65.3325 C   0  0  0  0  0  0  0  0  0  0  0  0
   56.8701   42.4765   64.5289 C   0  0  0  0  0  0  0  0  0  0  0  0
   55.7164   47.9606   64.8009 C   0  0  0  0  0  0  0  0  0  0  0  0
   56.9865   43.9825   64.9066 C   0  0  0  0  0  0  0  0  0  0  0  0
   57.2503   42.1098   63.1073 C   0  0  0  0  0  0  0  0  0  0  0  0
   51.5951   45.6828   67.2857 C   0  0  0  0  0  0  0  0  0  0  0  0
   50.7487   42.3179   63.4677 Cl  0  0  0  0  0  0  0  0  0  0  0  0
   55.5332   50.5935   63.7783 H   0  0  0  0  0  0  0  0  0  0  0  0
   53.7943   44.1106   67.7579 H   0  0  0  0  0  0  0  0  0  0  0  0
   50.2954   44.2837   65.4618 H   0  0  0  0  0  0  0  0  0  0  0  0
   53.3159   41.3686   64.4378 H   0  0  0  0  0  0  0  0  0  0  0  0
   53.7552   51.8241   63.2381 H   0  0  0  0  0  0  0  0  0  0  0  0
   51.0511   48.9869   64.4454 H   0  0  0  0  0  0  0  0  0  0  0  0
   58.1916   40.9920   65.2201 H   0  0  0  0  0  0  0  0  0  0  0  0
   57.5354   40.4733   65.7115 H   0  0  0  0  0  0  0  0  0  0  0  0
   55.3751   40.7974   64.7955 H   0  0  0  0  0  0  0  0  0  0  0  0
   56.6096   48.1760   64.2072 H   0  0  0  0  0  0  0  0  0  0  0  0
   56.0566   48.1528   65.8243 H   0  0  0  0  0  0  0  0  0  0  0  0
   55.3879   46.9206   64.6692 H   0  0  0  0  0  0  0  0  0  0  0  0
   58.0359   44.3051   64.9005 H   0  0  0  0  0  0  0  0  0  0  0  0
   56.6205   44.1876   65.9219 H   0  0  0  0  0  0  0  0  0  0  0  0
   56.4091   44.6348   64.2502 H   0  0  0  0  0  0  0  0  0  0  0  0
   56.9637   41.0745   62.9365 H   0  0  0  0  0  0  0  0  0  0  0  0
   58.3219   42.2101   62.8882 H   0  0  0  0  0  0  0  0  0  0  0  0
   56.6374   42.7477   62.4623 H   0  0  0  0  0  0  0  0  0  0  0  0
   50.5822   45.5061   67.6610 H   0  0  0  0  0  0  0  0  0  0  0  0
   52.2349   45.8677   68.1456 H   0  0  0  0  0  0  0  0  0  0  0  0
   53.6185   46.7276   66.0010 H   0  0  0  0  0  0  0  0  0  0  0  0
   55.5479   42.8026   67.0357 H   0  0  0  0  0  0  0  0  0  0  0  0
  1  9  1  0  0  0  0
  1 11  1  0  0  0  0
  1 25  1  0  0  0  0
  4 12  1  0  0  0  0
  4 13  1  0  0  0  0
  4 26  1  0  0  0  0
  5 45  1  0  0  0  0
  6 12  1  0  0  0  0
  6 15  1  0  0  0  0
  6 27  1  0  0  0  0
  7 46  1  0  0  0  0
  8 13  1  0  0  0  0
  8 15  1  0  0  0  0
  8 28  1  0  0  0  0
  2  9  1  0  0  0  0
  9 29  1  0  0  0  0
  2 10  1  0  0  0  0
 10 14  1  0  0  0  0
 10 30  1  0  0  0  0
 11 14  1  0  0  0  0
 11 20  1  0  0  0  0
 12 23  1  0  0  0  0
  7 13  1  0  0  0  0
  5 14  1  0  0  0  0
 15 24  1  0  0  0  0
  3 16  1  0  0  0  0
  5 16  1  0  0  0  0
 16 23  1  0  0  0  0
 17 18  1  0  0  0  0
 17 19  1  0  0  0  0
 17 31  1  0  0  0  0
 17 32  1  0  0  0  0
  7 18  1  0  0  0  0
 18 19  1  0  0  0  0
 18 33  1  0  0  0  0
 19 21  1  0  0  0  0
 19 22  1  0  0  0  0
 20 34  1  0  0  0  0
 20 35  1  0  0  0  0
 20 36  1  0  0  0  0
 21 37  1  0  0  0  0
 21 38  1  0  0  0  0
 21 39  1  0  0  0  0
 22 40  1  0  0  0  0
 22 41  1  0  0  0  0
 22 42  1  0  0  0  0
 23 43  1  0  0  0  0
 23 44  1  0  0  0  0
M  END
>  <pdb_header>
REMARK   1 CREATED WITH MDTraj 1.9.4, 2020-08-14
CRYST1   96.912   96.912   96.912  90.00  90.00  90.00 P 1           1 


$$$$
EN300-1074309-charged-primary_aminebackwards
  PyMOL2.3          3D                             0

 61 64  0  0  0  0  0  0  0  0999 V2000
   54.8357   50.6077   62.3774 C   0  0  0  0  0  0  0  0  0  0  0  0
   52.6344   50.8270   61.3962 N   0  0  0  0  0  0  0  0  0  0  0  0
   53.7736   45.7682   69.0963 O   0  0  0  0  0  0  0  0  0  0  0  0
   56.5463   48.3735   68.1756 S   0  0  0  0  0  0  0  0  0  0  0  0
   52.1472   46.1969   66.6093 C   0  0  0  0  0  0  0  0  0  0  0  0
   54.0803   44.6899   67.1827 N   0  0  0  0  0  0  0  0  0  0  0  0
   50.3012   49.6972   64.4111 O   0  0  0  0  0  0  0  0  0  0  0  0
   50.5695   45.4518   65.0322 C   0  0  0  0  0  0  0  0  0  0  0  0
   52.2838   48.6755   64.3324 N   0  0  0  0  0  0  0  0  0  0  0  0
   55.2338   48.1654   67.6513 O   0  0  0  0  0  0  0  0  0  0  0  0
   52.1973   43.9151   65.8557 C   0  0  0  0  0  0  0  0  0  0  0  0
   61.0904   47.5977   68.1656 N   0  0  0  0  0  0  0  0  0  0  0  0
   56.4118   49.1782   69.4033 O   0  0  0  0  0  0  0  0  0  0  0  0
   53.9445   51.0958   61.4268 C   0  0  0  0  0  0  0  0  0  0  0  0
   52.1128   50.0580   62.3214 C   0  0  0  0  0  0  0  0  0  0  0  0
   54.3059   49.7269   63.3430 C   0  0  0  0  0  0  0  0  0  0  0  0
   51.0908   46.4669   65.8114 C   0  0  0  0  0  0  0  0  0  0  0  0
   52.8375   44.9183   66.6083 C   0  0  0  0  0  0  0  0  0  0  0  0
   52.9103   49.4650   63.3516 C   0  0  0  0  0  0  0  0  0  0  0  0
   51.1320   44.1588   65.0150 C   0  0  0  0  0  0  0  0  0  0  0  0
   54.5850   45.1980   68.3349 C   0  0  0  0  0  0  0  0  0  0  0  0
   51.0183   48.7435   64.7631 C   0  0  0  0  0  0  0  0  0  0  0  0
   59.2795   48.9733   67.3744 C   0  0  0  0  0  0  0  0  0  0  0  0
   56.6107   45.9568   69.7851 C   0  0  0  0  0  0  0  0  0  0  0  0
   57.0248   45.7161   67.6122 C   0  0  0  0  0  0  0  0  0  0  0  0
   58.8668   46.9226   68.9032 C   0  0  0  0  0  0  0  0  0  0  0  0
   57.7696   49.1525   66.9887 C   0  0  0  0  0  0  0  0  0  0  0  0
   56.0528   45.0944   68.6638 C   0  0  0  0  0  0  0  0  0  0  0  0
   59.6766   47.5234   67.7413 C   0  0  0  0  0  0  0  0  0  0  0  0
   57.3186   46.7767   68.6398 C   0  0  0  0  0  0  0  0  0  0  0  0
   55.2376   49.2667   64.4436 C   0  0  0  0  0  0  0  0  0  0  0  0
   50.4201   47.8198   65.8140 C   0  0  0  0  0  0  0  0  0  0  0  0
   50.4248   42.8697   64.0317 Cl  0  0  0  0  0  0  0  0  0  0  0  0
   55.9071   50.7698   62.4111 H   0  0  0  0  0  0  0  0  0  0  0  0
   52.5220   46.9955   67.2297 H   0  0  0  0  0  0  0  0  0  0  0  0
   49.7364   45.6853   64.3815 H   0  0  0  0  0  0  0  0  0  0  0  0
   52.4357   42.8577   65.8162 H   0  0  0  0  0  0  0  0  0  0  0  0
   54.3128   51.8217   60.7004 H   0  0  0  0  0  0  0  0  0  0  0  0
   51.0327   49.9664   62.2436 H   0  0  0  0  0  0  0  0  0  0  0  0
   60.0332   49.3969   66.7035 H   0  0  0  0  0  0  0  0  0  0  0  0
   59.4048   49.5091   68.3212 H   0  0  0  0  0  0  0  0  0  0  0  0
   55.7965   46.4737   70.2944 H   0  0  0  0  0  0  0  0  0  0  0  0
   57.2975   45.5549   70.5421 H   0  0  0  0  0  0  0  0  0  0  0  0
   57.8742   45.0886   67.3068 H   0  0  0  0  0  0  0  0  0  0  0  0
   56.5026   46.0452   66.7069 H   0  0  0  0  0  0  0  0  0  0  0  0
   59.3401   45.9477   69.0356 H   0  0  0  0  0  0  0  0  0  0  0  0
   59.0087   47.4717   69.8431 H   0  0  0  0  0  0  0  0  0  0  0  0
   57.5497   50.2259   66.9302 H   0  0  0  0  0  0  0  0  0  0  0  0
   57.5636   48.8159   65.9706 H   0  0  0  0  0  0  0  0  0  0  0  0
   56.2081   44.0412   68.8941 H   0  0  0  0  0  0  0  0  0  0  0  0
   59.6598   46.9148   66.8427 H   0  0  0  0  0  0  0  0  0  0  0  0
   56.3095   49.2951   64.2953 H   0  0  0  0  0  0  0  0  0  0  0  0
   55.0822   49.9092   65.3124 H   0  0  0  0  0  0  0  0  0  0  0  0
   55.1090   48.2515   64.8309 H   0  0  0  0  0  0  0  0  0  0  0  0
   49.3582   47.6380   65.6360 H   0  0  0  0  0  0  0  0  0  0  0  0
   50.6040   48.2244   66.8228 H   0  0  0  0  0  0  0  0  0  0  0  0
   54.5958   43.8839   66.8180 H   0  0  0  0  0  0  0  0  0  0  0  0
   52.8882   47.9434   64.7229 H   0  0  0  0  0  0  0  0  0  0  0  0
   61.1819   47.5591   69.1867 H   0  0  0  0  0  0  0  0  0  0  0  0
   61.5575   48.4416   67.8281 H   0  0  0  0  0  0  0  0  0  0  0  0
   61.6093   46.7802   67.8589 H   0  0  0  0  0  0  0  0  0  0  0  0
  1 14  1  0  0  0  0
  1 16  1  0  0  0  0
  1 34  1  0  0  0  0
  5 17  1  0  0  0  0
  5 18  1  0  0  0  0
  5 35  1  0  0  0  0
  6 57  1  0  0  0  0
  8 17  1  0  0  0  0
  8 20  1  0  0  0  0
  8 36  1  0  0  0  0
  9 58  1  0  0  0  0
  4 10  1  0  0  0  0
 11 18  1  0  0  0  0
 11 20  1  0  0  0  0
 11 37  1  0  0  0  0
 12 59  1  0  0  0  0
 12 60  1  0  0  0  0
 12 61  1  0  0  0  0
  4 13  1  0  0  0  0
  2 14  1  0  0  0  0
 14 38  1  0  0  0  0
  2 15  1  0  0  0  0
 15 19  1  0  0  0  0
 15 39  1  0  0  0  0
 16 19  1  0  0  0  0
 16 31  1  0  0  0  0
 17 32  1  0  0  0  0
  6 18  1  0  0  0  0
  9 19  1  0  0  0  0
 20 33  1  0  0  0  0
  3 21  1  0  0  0  0
  6 21  1  0  0  0  0
 21 28  1  0  0  0  0
  7 22  1  0  0  0  0
  9 22  1  0  0  0  0
 22 32  1  0  0  0  0
 23 27  1  0  0  0  0
 23 29  1  0  0  0  0
 23 40  1  0  0  0  0
 23 41  1  0  0  0  0
 24 28  1  0  0  0  0
 24 30  1  0  0  0  0
 24 42  1  0  0  0  0
 24 43  1  0  0  0  0
 25 28  1  0  0  0  0
 25 30  1  0  0  0  0
 25 44  1  0  0  0  0
 25 45  1  0  0  0  0
 26 29  1  0  0  0  0
 26 30  1  0  0  0  0
 26 46  1  0  0  0  0
 26 47  1  0  0  0  0
  4 27  1  0  0  0  0
 27 48  1  0  0  0  0
 27 49  1  0  0  0  0
 28 50  1  0  0  0  0
 12 29  1  0  0  0  0
 29 51  1  0  0  0  0
  4 30  1  0  0  0  0
 31 52  1  0  0  0  0
 31 53  1  0  0  0  0
 31 54  1  0  0  0  0
 32 55  1  0  0  0  0
 32 56  1  0  0  0  0
M  END
>  <pdb_header>
REMARK   1 CREATED WITH MDTraj 1.9.4, 2020-08-14
CRYST1   96.945   96.945   96.945  90.00  90.00  90.00 P 1           1 


$$$$
EN300-26667249-charged-primary_aminebackwards
  PyMOL2.3          3D                             0

 52 54  0  0  0  0  0  0  0  0999 V2000
   55.1103   50.4713   62.9341 C   0  0  0  0  0  0  0  0  0  0  0  0
   53.0447   50.4849   61.7528 N   0  0  0  0  0  0  0  0  0  0  0  0
   50.4800   49.5760   64.8174 O   0  0  0  0  0  0  0  0  0  0  0  0
   52.3153   46.1524   67.2640 C   0  0  0  0  0  0  0  0  0  0  0  0
   52.5305   48.8287   65.0521 N   0  0  0  0  0  0  0  0  0  0  0  0
   50.6907   45.5257   65.5086 C   0  0  0  0  0  0  0  0  0  0  0  0
   54.1048   44.6224   67.7742 N   0  0  0  0  0  0  0  0  0  0  0  0
   52.3090   43.9378   66.3159 C   0  0  0  0  0  0  0  0  0  0  0  0
   54.3080   50.8481   61.8252 C   0  0  0  0  0  0  0  0  0  0  0  0
   52.4406   49.7530   62.7331 C   0  0  0  0  0  0  0  0  0  0  0  0
   54.5332   49.7378   63.9842 C   0  0  0  0  0  0  0  0  0  0  0  0
   51.1912   46.4764   66.3902 C   0  0  0  0  0  0  0  0  0  0  0  0
   52.8523   44.8998   67.2042 C   0  0  0  0  0  0  0  0  0  0  0  0
   53.1766   49.4059   63.9170 C   0  0  0  0  0  0  0  0  0  0  0  0
   51.1749   44.2454   65.5345 C   0  0  0  0  0  0  0  0  0  0  0  0
   51.1706   48.7245   65.3144 C   0  0  0  0  0  0  0  0  0  0  0  0
   56.5555   46.3577   68.4975 C   0  0  0  0  0  0  0  0  0  0  0  0
   55.0614   46.7605   68.4563 C   0  0  0  0  0  0  0  0  0  0  0  0
   56.2439   44.9754   69.0926 C   0  0  0  0  0  0  0  0  0  0  0  0
   54.7137   45.3809   68.8878 C   0  0  0  0  0  0  0  0  0  0  0  0
   55.4140   49.4089   65.1383 C   0  0  0  0  0  0  0  0  0  0  0  0
   56.8268   43.7641   68.2450 C   0  0  0  0  0  0  0  0  0  0  0  0
   56.6845   44.8968   70.5771 C   0  0  0  0  0  0  0  0  0  0  0  0
   53.7922   45.3676   70.1468 C   0  0  0  0  0  0  0  0  0  0  0  0
   50.6016   47.8413   66.4470 C   0  0  0  0  0  0  0  0  0  0  0  0
   50.5661   43.0066   64.3646 Cl  0  0  0  0  0  0  0  0  0  0  0  0
   56.1477   50.7746   63.0267 H   0  0  0  0  0  0  0  0  0  0  0  0
   52.6831   46.9609   67.8872 H   0  0  0  0  0  0  0  0  0  0  0  0
   49.8909   45.7843   64.8260 H   0  0  0  0  0  0  0  0  0  0  0  0
   52.8950   43.0241   66.3877 H   0  0  0  0  0  0  0  0  0  0  0  0
   54.7059   51.6271   61.1894 H   0  0  0  0  0  0  0  0  0  0  0  0
   51.3794   49.5866   62.6212 H   0  0  0  0  0  0  0  0  0  0  0  0
   56.9303   46.2333   67.4699 H   0  0  0  0  0  0  0  0  0  0  0  0
   57.1255   47.0368   69.1228 H   0  0  0  0  0  0  0  0  0  0  0  0
   54.7581   47.4706   69.2309 H   0  0  0  0  0  0  0  0  0  0  0  0
   54.7263   47.1598   67.4939 H   0  0  0  0  0  0  0  0  0  0  0  0
   55.4209   48.3165   65.2066 H   0  0  0  0  0  0  0  0  0  0  0  0
   56.4526   49.7369   64.9701 H   0  0  0  0  0  0  0  0  0  0  0  0
   54.9714   49.8402   66.0496 H   0  0  0  0  0  0  0  0  0  0  0  0
   57.7272   43.2524   68.6194 H   0  0  0  0  0  0  0  0  0  0  0  0
   57.0642   44.0677   67.2224 H   0  0  0  0  0  0  0  0  0  0  0  0
   56.0637   42.9877   68.1250 H   0  0  0  0  0  0  0  0  0  0  0  0
   57.7664   44.7215   70.6227 H   0  0  0  0  0  0  0  0  0  0  0  0
   56.2250   44.0045   71.0194 H   0  0  0  0  0  0  0  0  0  0  0  0
   56.4183   45.7851   71.1406 H   0  0  0  0  0  0  0  0  0  0  0  0
   52.7598   45.6194   69.8894 H   0  0  0  0  0  0  0  0  0  0  0  0
   54.1438   46.0197   70.9592 H   0  0  0  0  0  0  0  0  0  0  0  0
   53.6662   44.3611   70.5636 H   0  0  0  0  0  0  0  0  0  0  0  0
   49.5210   47.7928   66.3193 H   0  0  0  0  0  0  0  0  0  0  0  0
   50.8290   48.4298   67.3548 H   0  0  0  0  0  0  0  0  0  0  0  0
   53.1557   48.6218   65.8400 H   0  0  0  0  0  0  0  0  0  0  0  0
   54.2323   43.6178   67.8810 H   0  0  0  0  0  0  0  0  0  0  0  0
  1  9  1  0  0  0  0
  1 11  1  0  0  0  0
  1 27  1  0  0  0  0
  4 12  1  0  0  0  0
  4 13  1  0  0  0  0
  4 28  1  0  0  0  0
  5 51  1  0  0  0  0
  6 12  1  0  0  0  0
  6 15  1  0  0  0  0
  6 29  1  0  0  0  0
  7 52  1  0  0  0  0
  8 13  1  0  0  0  0
  8 15  1  0  0  0  0
  8 30  1  0  0  0  0
  2  9  1  0  0  0  0
  9 31  1  0  0  0  0
  2 10  1  0  0  0  0
 10 14  1  0  0  0  0
 10 32  1  0  0  0  0
 11 14  1  0  0  0  0
 11 21  1  0  0  0  0
 12 25  1  0  0  0  0
  7 13  1  0  0  0  0
  5 14  1  0  0  0  0
 15 26  1  0  0  0  0
  3 16  1  0  0  0  0
  5 16  1  0  0  0  0
 16 25  1  0  0  0  0
 17 18  1  0  0  0  0
 17 19  1  0  0  0  0
 17 33  1  0  0  0  0
 17 34  1  0  0  0  0
 18 20  1  0  0  0  0
 18 35  1  0  0  0  0
 18 36  1  0  0  0  0
 19 20  1  0  0  0  0
 19 22  1  0  0  0  0
 19 23  1  0  0  0  0
  7 20  1  0  0  0  0
 20 24  1  0  0  0  0
 21 37  1  0  0  0  0
 21 38  1  0  0  0  0
 21 39  1  0  0  0  0
 22 40  1  0  0  0  0
 22 41  1  0  0  0  0
 22 42  1  0  0  0  0
 23 43  1  0  0  0  0
 23 44  1  0  0  0  0
 23 45  1  0  0  0  0
 24 46  1  0  0  0  0
 24 47  1  0  0  0  0
 24 48  1  0  0  0  0
 25 49  1  0  0  0  0
 25 50  1  0  0  0  0
M  END
>  <pdb_header>
REMARK   1 CREATED WITH MDTraj 1.9.4, 2020-08-14
CRYST1   96.963   96.963   96.963  90.00  90.00  90.00 P 1           1 


$$$$
EN300-650549-charged-primary_aminebackwards
  PyMOL2.3          3D                             0

 47 48  0  0  0  0  0  0  0  0999 V2000
   58.2978   43.6416   66.9870 C   0  0  0  0  0  0  0  0  0  0  0  0
   53.1523   51.4065   60.9602 N   0  0  0  0  0  0  0  0  0  0  0  0
   60.5965   44.1011   67.1558 O   0  0  0  0  0  0  0  0  0  0  0  0
   57.2109   43.7377   66.4011 C   0  0  0  0  0  0  0  0  0  0  0  0
   53.1986   49.4058   64.0147 N   0  0  0  0  0  0  0  0  0  0  0  0
   51.0706   50.1084   64.1310 O   0  0  0  0  0  0  0  0  0  0  0  0
   55.1655   51.9374   62.2253 C   0  0  0  0  0  0  0  0  0  0  0  0
   55.1633   44.9653   66.1899 N   0  0  0  0  0  0  0  0  0  0  0  0
   59.6120   42.5745   68.5571 O   0  0  0  0  0  0  0  0  0  0  0  0
   53.3457   46.6091   65.8636 C   0  0  0  0  0  0  0  0  0  0  0  0
   51.2810   45.7606   64.9596 C   0  0  0  0  0  0  0  0  0  0  0  0
   53.1185   44.2939   65.3542 C   0  0  0  0  0  0  0  0  0  0  0  0
   54.3119   52.0499   61.1159 C   0  0  0  0  0  0  0  0  0  0  0  0
   52.8863   50.5273   61.8998 C   0  0  0  0  0  0  0  0  0  0  0  0
   54.8450   51.0504   63.2422 C   0  0  0  0  0  0  0  0  0  0  0  0
   52.0749   46.8375   65.3867 C   0  0  0  0  0  0  0  0  0  0  0  0
   53.8699   45.3035   65.7951 C   0  0  0  0  0  0  0  0  0  0  0  0
   53.6735   50.2792   63.0289 C   0  0  0  0  0  0  0  0  0  0  0  0
   51.7555   44.4566   64.9778 C   0  0  0  0  0  0  0  0  0  0  0  0
   59.6120   43.4571   67.5571 C   0  0  0  0  0  0  0  0  0  0  0  0
   51.9305   49.2561   64.4384 C   0  0  0  0  0  0  0  0  0  0  0  0
   55.7518   50.8616   64.4112 C   0  0  0  0  0  0  0  0  0  0  0  0
   60.6899   41.4004   70.3303 C   0  0  0  0  0  0  0  0  0  0  0  0
   55.9430   43.8326   65.6747 C   0  0  0  0  0  0  0  0  0  0  0  0
   51.4137   48.2246   65.4537 C   0  0  0  0  0  0  0  0  0  0  0  0
   60.8620   42.4714   69.2689 C   0  0  0  0  0  0  0  0  0  0  0  0
   50.7170   43.1603   64.4995 Cl  0  0  0  0  0  0  0  0  0  0  0  0
   55.9864   52.6303   62.3220 H   0  0  0  0  0  0  0  0  0  0  0  0
   53.9045   47.3706   66.4036 H   0  0  0  0  0  0  0  0  0  0  0  0
   50.2728   46.0227   64.6558 H   0  0  0  0  0  0  0  0  0  0  0  0
   53.4584   43.2663   65.2189 H   0  0  0  0  0  0  0  0  0  0  0  0
   54.5219   52.8657   60.4358 H   0  0  0  0  0  0  0  0  0  0  0  0
   51.9990   49.9098   61.8146 H   0  0  0  0  0  0  0  0  0  0  0  0
   56.2748   51.8074   64.5862 H   0  0  0  0  0  0  0  0  0  0  0  0
   55.1512   50.6140   65.2840 H   0  0  0  0  0  0  0  0  0  0  0  0
   56.5161   50.1133   64.1778 H   0  0  0  0  0  0  0  0  0  0  0  0
   60.1926   40.5519   69.8456 H   0  0  0  0  0  0  0  0  0  0  0  0
   61.6785   41.1368   70.7404 H   0  0  0  0  0  0  0  0  0  0  0  0
   60.0167   41.7334   71.1190 H   0  0  0  0  0  0  0  0  0  0  0  0
   55.4046   42.8973   65.8665 H   0  0  0  0  0  0  0  0  0  0  0  0
   56.1625   44.0165   64.6121 H   0  0  0  0  0  0  0  0  0  0  0  0
   50.3186   48.1240   65.4361 H   0  0  0  0  0  0  0  0  0  0  0  0
   51.7046   48.6948   66.4055 H   0  0  0  0  0  0  0  0  0  0  0  0
   61.2574   43.3790   69.7356 H   0  0  0  0  0  0  0  0  0  0  0  0
   61.6652   42.1140   68.6082 H   0  0  0  0  0  0  0  0  0  0  0  0
   53.9062   48.7094   64.2229 H   0  0  0  0  0  0  0  0  0  0  0  0
   55.6498   45.5480   66.8692 H   0  0  0  0  0  0  0  0  0  0  0  0
  1  4  1  0  0  0  0
  1 20  1  0  0  0  0
  4 24  1  0  0  0  0
  5 46  1  0  0  0  0
  7 13  1  0  0  0  0
  7 15  1  0  0  0  0
  7 28  1  0  0  0  0
  8 47  1  0  0  0  0
 10 16  1  0  0  0  0
 10 17  1  0  0  0  0
 10 29  1  0  0  0  0
 11 16  1  0  0  0  0
 11 19  1  0  0  0  0
 11 30  1  0  0  0  0
 12 17  1  0  0  0  0
 12 19  1  0  0  0  0
 12 31  1  0  0  0  0
  2 13  1  0  0  0  0
 13 32  1  0  0  0  0
  2 14  1  0  0  0  0
 14 18  1  0  0  0  0
 14 33  1  0  0  0  0
 15 18  1  0  0  0  0
 15 22  1  0  0  0  0
 16 25  1  0  0  0  0
  8 17  1  0  0  0  0
  5 18  1  0  0  0  0
 19 27  1  0  0  0  0
  3 20  1  0  0  0  0
  9 20  1  0  0  0  0
  5 21  1  0  0  0  0
  6 21  1  0  0  0  0
 21 25  1  0  0  0  0
 22 34  1  0  0  0  0
 22 35  1  0  0  0  0
 22 36  1  0  0  0  0
 23 26  1  0  0  0  0
 23 37  1  0  0  0  0
 23 38  1  0  0  0  0
 23 39  1  0  0  0  0
  8 24  1  0  0  0  0
 24 40  1  0  0  0  0
 24 41  1  0  0  0  0
 25 42  1  0  0  0  0
 25 43  1  0  0  0  0
  9 26  1  0  0  0  0
 26 44  1  0  0  0  0
 26 45  1  0  0  0  0
M  END
>  <pdb_header>
REMARK   1 CREATED WITH MDTraj 1.9.4, 2020-08-14
CRYST1   96.894   96.894   96.894  90.00  90.00  90.00 P 1           1 


$$$$
EN300-1700325-charged-primary_aminebackwards
  PyMOL2.3          3D                             0

 48 51  0  0  0  0  0  0  0  0999 V2000
   54.7213   51.3586   62.5487 C   0  0  0  0  0  0  0  0  0  0  0  0
   53.0907   50.9055   60.9491 N   0  0  0  0  0  0  0  0  0  0  0  0
   54.3841   47.0042   63.9327 O   0  0  0  0  0  0  0  0  0  0  0  0
   52.1263   46.6056   65.8977 C   0  0  0  0  0  0  0  0  0  0  0  0
   56.2729   47.1542   65.1607 N   0  0  0  0  0  0  0  0  0  0  0  0
   50.8443   50.8296   65.0512 O   0  0  0  0  0  0  0  0  0  0  0  0
   49.7989   46.6845   65.3856 C   0  0  0  0  0  0  0  0  0  0  0  0
   52.1238   49.2901   64.0974 N   0  0  0  0  0  0  0  0  0  0  0  0
   51.1072   44.6446   64.9330 C   0  0  0  0  0  0  0  0  0  0  0  0
   53.4857   44.5484   65.3427 N   0  0  0  0  0  0  0  0  0  0  0  0
   54.1802   51.5183   61.3019 C   0  0  0  0  0  0  0  0  0  0  0  0
   52.4088   50.2301   61.8479 C   0  0  0  0  0  0  0  0  0  0  0  0
   54.0663   50.6095   63.5193 C   0  0  0  0  0  0  0  0  0  0  0  0
   50.9316   47.3395   65.8603 C   0  0  0  0  0  0  0  0  0  0  0  0
   52.2549   45.2848   65.3952 C   0  0  0  0  0  0  0  0  0  0  0  0
   52.8430   50.0355   63.2161 C   0  0  0  0  0  0  0  0  0  0  0  0
   49.8782   45.3556   64.9059 C   0  0  0  0  0  0  0  0  0  0  0  0
   55.0917   46.5694   64.8570 C   0  0  0  0  0  0  0  0  0  0  0  0
   51.3442   49.7602   65.1512 C   0  0  0  0  0  0  0  0  0  0  0  0
   55.1521   45.4501   67.1568 C   0  0  0  0  0  0  0  0  0  0  0  0
   55.9602   44.3710   65.6275 C   0  0  0  0  0  0  0  0  0  0  0  0
   57.2812   46.4732   66.0413 C   0  0  0  0  0  0  0  0  0  0  0  0
   56.5961   45.2664   66.6788 C   0  0  0  0  0  0  0  0  0  0  0  0
   54.7584   45.2557   65.6987 C   0  0  0  0  0  0  0  0  0  0  0  0
   54.5661   50.5583   64.9000 C   0  0  0  0  0  0  0  0  0  0  0  0
   50.8959   48.8239   66.2478 C   0  0  0  0  0  0  0  0  0  0  0  0
   48.5137   44.6668   64.2256 Cl  0  0  0  0  0  0  0  0  0  0  0  0
   55.7409   51.7247   62.6146 H   0  0  0  0  0  0  0  0  0  0  0  0
   52.9289   47.1945   66.3517 H   0  0  0  0  0  0  0  0  0  0  0  0
   48.9009   47.2867   65.4599 H   0  0  0  0  0  0  0  0  0  0  0  0
   51.1762   43.6499   64.4922 H   0  0  0  0  0  0  0  0  0  0  0  0
   54.8024   52.0897   60.6155 H   0  0  0  0  0  0  0  0  0  0  0  0
   51.4291   49.8139   61.6571 H   0  0  0  0  0  0  0  0  0  0  0  0
   54.7827   44.7357   67.8997 H   0  0  0  0  0  0  0  0  0  0  0  0
   54.9010   46.4392   67.5625 H   0  0  0  0  0  0  0  0  0  0  0  0
   56.5202   44.2924   64.6860 H   0  0  0  0  0  0  0  0  0  0  0  0
   55.7766   43.3328   65.9447 H   0  0  0  0  0  0  0  0  0  0  0  0
   57.6376   47.2012   66.7804 H   0  0  0  0  0  0  0  0  0  0  0  0
   58.1375   46.1303   65.4406 H   0  0  0  0  0  0  0  0  0  0  0  0
   57.1855   44.7577   67.4531 H   0  0  0  0  0  0  0  0  0  0  0  0
   54.0933   49.7803   65.5064 H   0  0  0  0  0  0  0  0  0  0  0  0
   55.6519   50.5396   64.9418 H   0  0  0  0  0  0  0  0  0  0  0  0
   54.4606   51.4779   65.4906 H   0  0  0  0  0  0  0  0  0  0  0  0
   49.8848   49.0754   66.5953 H   0  0  0  0  0  0  0  0  0  0  0  0
   51.6996   48.9078   66.9829 H   0  0  0  0  0  0  0  0  0  0  0  0
   56.6335   48.0035   64.7196 H   0  0  0  0  0  0  0  0  0  0  0  0
   52.3738   48.3050   64.0781 H   0  0  0  0  0  0  0  0  0  0  0  0
   53.6052   43.6699   64.8322 H   0  0  0  0  0  0  0  0  0  0  0  0
  1 11  1  0  0  0  0
  1 13  1  0  0  0  0
  1 28  1  0  0  0  0
  4 14  1  0  0  0  0
  4 15  1  0  0  0  0
  4 29  1  0  0  0  0
  5 46  1  0  0  0  0
  7 14  1  0  0  0  0
  7 17  1  0  0  0  0
  7 30  1  0  0  0  0
  8 47  1  0  0  0  0
  9 15  1  0  0  0  0
  9 17  1  0  0  0  0
  9 31  1  0  0  0  0
 10 48  1  0  0  0  0
  2 11  1  0  0  0  0
 11 32  1  0  0  0  0
  2 12  1  0  0  0  0
 12 16  1  0  0  0  0
 12 33  1  0  0  0  0
 13 16  1  0  0  0  0
 13 25  1  0  0  0  0
 14 26  1  0  0  0  0
 10 15  1  0  0  0  0
  8 16  1  0  0  0  0
 17 27  1  0  0  0  0
  3 18  1  0  0  0  0
  5 18  1  0  0  0  0
 18 24  1  0  0  0  0
  6 19  1  0  0  0  0
  8 19  1  0  0  0  0
 19 26  1  0  0  0  0
 20 23  1  0  0  0  0
 20 24  1  0  0  0  0
 20 34  1  0  0  0  0
 20 35  1  0  0  0  0
 21 23  1  0  0  0  0
 21 24  1  0  0  0  0
 21 36  1  0  0  0  0
 21 37  1  0  0  0  0
  5 22  1  0  0  0  0
 22 23  1  0  0  0  0
 22 38  1  0  0  0  0
 22 39  1  0  0  0  0
 23 40  1  0  0  0  0
 10 24  1  0  0  0  0
 25 41  1  0  0  0  0
 25 42  1  0  0  0  0
 25 43  1  0  0  0  0
 26 44  1  0  0  0  0
 26 45  1  0  0  0  0
M  END
>  <pdb_header>
REMARK   1 CREATED WITH MDTraj 1.9.4, 2020-08-14
CRYST1   96.902   96.902   96.902  90.00  90.00  90.00 P 1           1 


$$$$
EN300-189763-charged-primary_aminebackwards
  PyMOL2.3          3D                             0

 43 45  0  0  0  0  0  0  0  0999 V2000
   54.7950   52.4010   62.6390 C   0  0  0  0  0  0  0  0  0  0  0  0
   53.3950   50.8210   61.4790 N   0  0  0  0  0  0  0  0  0  0  0  0
   54.9450   47.7110   63.9490 O   0  0  0  0  0  0  0  0  0  0  0  0
   54.8850   45.0710   65.7390 C   0  0  0  0  0  0  0  0  0  0  0  0
   54.0450   49.5610   64.8790 N   0  0  0  0  0  0  0  0  0  0  0  0
   52.4950   45.4110   65.4190 C   0  0  0  0  0  0  0  0  0  0  0  0
   56.0150   42.9610   65.2790 N   0  0  0  0  0  0  0  0  0  0  0  0
   53.5250   43.2310   65.1190 C   0  0  0  0  0  0  0  0  0  0  0  0
   54.0350   52.0210   61.5190 C   0  0  0  0  0  0  0  0  0  0  0  0
   53.5250   50.0510   62.5690 C   0  0  0  0  0  0  0  0  0  0  0  0
   54.6950   51.6510   63.8690 C   0  0  0  0  0  0  0  0  0  0  0  0
   53.7850   45.9110   65.6790 C   0  0  0  0  0  0  0  0  0  0  0  0
   54.8150   43.7310   65.4390 C   0  0  0  0  0  0  0  0  0  0  0  0
   54.1050   50.3910   63.7790 C   0  0  0  0  0  0  0  0  0  0  0  0
   52.3950   44.0610   65.0190 C   0  0  0  0  0  0  0  0  0  0  0  0
   54.3050   48.2010   64.8690 C   0  0  0  0  0  0  0  0  0  0  0  0
   58.1650   44.0910   65.7390 C   0  0  0  0  0  0  0  0  0  0  0  0
   59.1750   42.9910   65.3390 C   0  0  0  0  0  0  0  0  0  0  0  0
   57.2550   43.4610   64.6790 C   0  0  0  0  0  0  0  0  0  0  0  0
   58.3150   42.3910   64.3290 C   0  0  0  0  0  0  0  0  0  0  0  0
   55.4550   52.0310   65.1190 C   0  0  0  0  0  0  0  0  0  0  0  0
   53.8750   47.3310   66.0090 C   0  0  0  0  0  0  0  0  0  0  0  0
   50.8950   43.4910   64.3690 Cl  0  0  0  0  0  0  0  0  0  0  0  0
   57.8850   41.1210   64.7090 F   0  0  0  0  0  0  0  0  0  0  0  0
   58.8650   42.4310   63.0790 F   0  0  0  0  0  0  0  0  0  0  0  0
   55.3850   53.3010   62.6890 H   0  0  0  0  0  0  0  0  0  0  0  0
   55.8550   45.4610   66.0590 H   0  0  0  0  0  0  0  0  0  0  0  0
   51.6250   46.0410   65.2490 H   0  0  0  0  0  0  0  0  0  0  0  0
   53.5250   42.1610   64.9290 H   0  0  0  0  0  0  0  0  0  0  0  0
   54.1050   52.7710   60.7390 H   0  0  0  0  0  0  0  0  0  0  0  0
   53.1150   49.0510   62.5890 H   0  0  0  0  0  0  0  0  0  0  0  0
   57.8350   43.9910   66.7790 H   0  0  0  0  0  0  0  0  0  0  0  0
   58.5550   45.0610   65.4190 H   0  0  0  0  0  0  0  0  0  0  0  0
   60.0750   43.4510   64.9190 H   0  0  0  0  0  0  0  0  0  0  0  0
   59.5350   42.3810   66.1790 H   0  0  0  0  0  0  0  0  0  0  0  0
   57.0850   44.1910   63.8890 H   0  0  0  0  0  0  0  0  0  0  0  0
   56.1850   51.2810   65.4490 H   0  0  0  0  0  0  0  0  0  0  0  0
   56.0450   52.9110   64.8390 H   0  0  0  0  0  0  0  0  0  0  0  0
   54.8050   52.2710   65.9690 H   0  0  0  0  0  0  0  0  0  0  0  0
   52.8550   47.5410   66.3390 H   0  0  0  0  0  0  0  0  0  0  0  0
   54.5050   47.5710   66.8690 H   0  0  0  0  0  0  0  0  0  0  0  0
   53.6850   49.9510   65.7490 H   0  0  0  0  0  0  0  0  0  0  0  0
   55.7550   41.9710   65.2490 H   0  0  0  0  0  0  0  0  0  0  0  0
  1  9  1  0  0  0  0
  1 11  1  0  0  0  0
  1 26  1  0  0  0  0
  4 12  1  0  0  0  0
  4 13  1  0  0  0  0
  4 27  1  0  0  0  0
  5 42  1  0  0  0  0
  6 12  1  0  0  0  0
  6 15  1  0  0  0  0
  6 28  1  0  0  0  0
  7 43  1  0  0  0  0
  8 13  1  0  0  0  0
  8 15  1  0  0  0  0
  8 29  1  0  0  0  0
  2  9  1  0  0  0  0
  9 30  1  0  0  0  0
  2 10  1  0  0  0  0
 10 14  1  0  0  0  0
 10 31  1  0  0  0  0
 11 14  1  0  0  0  0
 11 21  1  0  0  0  0
 12 22  1  0  0  0  0
  7 13  1  0  0  0  0
  5 14  1  0  0  0  0
 15 23  1  0  0  0  0
  3 16  1  0  0  0  0
  5 16  1  0  0  0  0
 16 22  1  0  0  0  0
 17 18  1  0  0  0  0
 17 19  1  0  0  0  0
 17 32  1  0  0  0  0
 17 33  1  0  0  0  0
 18 20  1  0  0  0  0
 18 34  1  0  0  0  0
 18 35  1  0  0  0  0
  7 19  1  0  0  0  0
 19 20  1  0  0  0  0
 19 36  1  0  0  0  0
 20 24  1  0  0  0  0
 20 25  1  0  0  0  0
 21 37  1  0  0  0  0
 21 38  1  0  0  0  0
 21 39  1  0  0  0  0
 22 40  1  0  0  0  0
 22 41  1  0  0  0  0
M  END
>  <pdb_header>
REMARK   1 CREATED WITH MDTraj 1.9.4, 2020-08-14
CRYST1   96.802   96.802   96.802  90.00  90.00  90.00 P 1           1 


$$$$
