EN300-365771-neutral-boronic_esterbackwards
  PyMOL2.3          3D                             0

 47 49  0  0  0  0  0  0  0  0999 V2000
   36.5087   56.6716   65.7793 C   0  0  0  0  0  0  0  0  0  0  0  0
   36.5766   50.4285   56.8693 N   0  0  0  0  0  0  0  0  0  0  0  0
   37.3833   52.4254   60.4095 O   0  0  0  0  0  0  0  0  0  0  0  0
   36.2305   60.5316   67.0542 S   0  0  0  0  0  0  0  0  0  0  0  0
   36.0385   57.8783   66.3440 C   0  0  0  0  0  0  0  0  0  0  0  0
   35.1870   52.1002   59.8709 N   0  0  0  0  0  0  0  0  0  0  0  0
   37.0785   61.5623   67.7197 O   0  0  0  0  0  0  0  0  0  0  0  0
   34.8891   51.9159   56.2031 C   0  0  0  0  0  0  0  0  0  0  0  0
   37.0616   61.0431   65.9574 O   0  0  0  0  0  0  0  0  0  0  0  0
   37.0151   54.6373   63.6793 C   0  0  0  0  0  0  0  0  0  0  0  0
   39.1940   54.3944   64.7003 C   0  0  0  0  0  0  0  0  0  0  0  0
   38.2764   52.6305   63.2865 C   0  0  0  0  0  0  0  0  0  0  0  0
   38.2938   58.6417   66.2378 C   0  0  0  0  0  0  0  0  0  0  0  0
   35.8233   50.9979   55.9028 C   0  0  0  0  0  0  0  0  0  0  0  0
   36.3845   50.8954   58.1002 C   0  0  0  0  0  0  0  0  0  0  0  0
   37.7414   56.4454   65.2284 C   0  0  0  0  0  0  0  0  0  0  0  0
   38.0127   55.1659   64.5273 C   0  0  0  0  0  0  0  0  0  0  0  0
   34.5744   52.2871   57.5134 C   0  0  0  0  0  0  0  0  0  0  0  0
   37.0936   53.3813   62.9844 C   0  0  0  0  0  0  0  0  0  0  0  0
   35.3558   51.7984   58.5309 C   0  0  0  0  0  0  0  0  0  0  0  0
   36.9356   58.9162   66.5578 C   0  0  0  0  0  0  0  0  0  0  0  0
   39.3520   53.1236   64.0852 C   0  0  0  0  0  0  0  0  0  0  0  0
   38.7114   57.4617   65.5323 C   0  0  0  0  0  0  0  0  0  0  0  0
   36.2104   52.3812   60.7475 C   0  0  0  0  0  0  0  0  0  0  0  0
   33.2810   53.1142   57.7061 C   0  0  0  0  0  0  0  0  0  0  0  0
   36.7536   59.7641   68.5484 C   0  0  0  0  0  0  0  0  0  0  0  0
   35.9004   52.7937   62.1449 C   0  0  0  0  0  0  0  0  0  0  0  0
   40.8324   52.1554   64.3421 Cl  0  0  0  0  0  0  0  0  0  0  0  0
   40.3384   57.3917   64.8667 Cl  0  0  0  0  0  0  0  0  0  0  0  0
   35.7665   55.8828   65.6253 H   0  0  0  0  0  0  0  0  0  0  0  0
   34.9725   57.9890   66.5351 H   0  0  0  0  0  0  0  0  0  0  0  0
   34.3805   52.3320   55.3328 H   0  0  0  0  0  0  0  0  0  0  0  0
   36.1148   55.1765   63.4311 H   0  0  0  0  0  0  0  0  0  0  0  0
   39.9463   54.7590   65.3901 H   0  0  0  0  0  0  0  0  0  0  0  0
   38.3442   51.6167   62.8945 H   0  0  0  0  0  0  0  0  0  0  0  0
   38.9984   59.4584   66.3955 H   0  0  0  0  0  0  0  0  0  0  0  0
   36.0714   50.6883   54.8862 H   0  0  0  0  0  0  0  0  0  0  0  0
   37.0435   50.4907   58.8639 H   0  0  0  0  0  0  0  0  0  0  0  0
   33.3433   53.9712   57.0282 H   0  0  0  0  0  0  0  0  0  0  0  0
   32.4482   52.4586   57.4365 H   0  0  0  0  0  0  0  0  0  0  0  0
   33.1724   53.5164   58.7288 H   0  0  0  0  0  0  0  0  0  0  0  0
   37.8299   59.6219   68.6210 H   0  0  0  0  0  0  0  0  0  0  0  0
   36.1832   58.8481   68.7188 H   0  0  0  0  0  0  0  0  0  0  0  0
   36.5589   60.3599   69.4496 H   0  0  0  0  0  0  0  0  0  0  0  0
   35.6849   51.8673   62.6893 H   0  0  0  0  0  0  0  0  0  0  0  0
   35.0261   53.4387   62.3070 H   0  0  0  0  0  0  0  0  0  0  0  0
   34.2032   52.2963   60.0838 H   0  0  0  0  0  0  0  0  0  0  0  0
  1  5  1  0  0  0  0
  1 16  1  0  0  0  0
  1 30  1  0  0  0  0
  5 21  1  0  0  0  0
  5 31  1  0  0  0  0
  6 47  1  0  0  0  0
  4  7  1  0  0  0  0
  8 14  1  0  0  0  0
  8 18  1  0  0  0  0
  8 32  1  0  0  0  0
  4  9  1  0  0  0  0
 10 17  1  0  0  0  0
 10 19  1  0  0  0  0
 10 33  1  0  0  0  0
 11 17  1  0  0  0  0
 11 22  1  0  0  0  0
 11 34  1  0  0  0  0
 12 19  1  0  0  0  0
 12 22  1  0  0  0  0
 12 35  1  0  0  0  0
 13 21  1  0  0  0  0
 13 23  1  0  0  0  0
 13 36  1  0  0  0  0
  2 14  1  0  0  0  0
 14 37  1  0  0  0  0
  2 15  1  0  0  0  0
 15 20  1  0  0  0  0
 15 38  1  0  0  0  0
 16 17  1  0  0  0  0
 16 23  1  0  0  0  0
 18 20  1  0  0  0  0
 18 25  1  0  0  0  0
 19 27  1  0  0  0  0
  6 20  1  0  0  0  0
  4 21  1  0  0  0  0
 22 28  1  0  0  0  0
 23 29  1  0  0  0  0
  3 24  1  0  0  0  0
  6 24  1  0  0  0  0
 24 27  1  0  0  0  0
 25 39  1  0  0  0  0
 25 40  1  0  0  0  0
 25 41  1  0  0  0  0
  4 26  1  0  0  0  0
 26 42  1  0  0  0  0
 26 43  1  0  0  0  0
 26 44  1  0  0  0  0
 27 45  1  0  0  0  0
 27 46  1  0  0  0  0
M  END
>  <pdb_header>
REMARK   1 CREATED WITH MDTraj 1.9.4, 2020-08-14
CRYST1   96.898   96.898   96.898  90.00  90.00  90.00 P 1           1 


$$$$
EN300-316592-neutral-boronic_esterbackwards
  PyMOL2.3          3D                             0

 51 53  0  0  0  0  0  0  0  0999 V2000
   36.2955   54.0368   65.0468 C   0  0  0  0  0  0  0  0  0  0  0  0
   36.9728   50.6440   55.8767 N   0  0  0  0  0  0  0  0  0  0  0  0
   37.3993   58.5251   66.3665 O   0  0  0  0  0  0  0  0  0  0  0  0
   35.8222   55.3541   65.4881 C   0  0  0  0  0  0  0  0  0  0  0  0
   36.3038   51.0466   59.5065 N   0  0  0  0  0  0  0  0  0  0  0  0
   36.2282   48.7309   59.6277 O   0  0  0  0  0  0  0  0  0  0  0  0
   35.4258   52.4266   56.1308 C   0  0  0  0  0  0  0  0  0  0  0  0
   39.7849   54.7264   64.0912 O   0  0  0  0  0  0  0  0  0  0  0  0
   36.9968   51.7484   63.1595 C   0  0  0  0  0  0  0  0  0  0  0  0
   35.3501   57.8477   66.8557 O   0  0  0  0  0  0  0  0  0  0  0  0
   39.1854   51.8370   64.0810 C   0  0  0  0  0  0  0  0  0  0  0  0
   38.1225   56.0978   65.0842 C   0  0  0  0  0  0  0  0  0  0  0  0
   38.4632   50.0240   62.7304 C   0  0  0  0  0  0  0  0  0  0  0  0
   36.1039   51.4884   55.3530 C   0  0  0  0  0  0  0  0  0  0  0  0
   37.0590   50.5916   57.2026 C   0  0  0  0  0  0  0  0  0  0  0  0
   37.5944   53.7913   64.5330 C   0  0  0  0  0  0  0  0  0  0  0  0
   37.9529   52.4438   63.9544 C   0  0  0  0  0  0  0  0  0  0  0  0
   36.8139   56.3743   65.5826 C   0  0  0  0  0  0  0  0  0  0  0  0
   35.4455   52.2755   57.5523 C   0  0  0  0  0  0  0  0  0  0  0  0
   37.1987   50.5725   62.5392 C   0  0  0  0  0  0  0  0  0  0  0  0
   36.2442   51.2748   58.0971 C   0  0  0  0  0  0  0  0  0  0  0  0
   38.4832   54.8203   64.5868 C   0  0  0  0  0  0  0  0  0  0  0  0
   39.4793   50.6351   63.4092 C   0  0  0  0  0  0  0  0  0  0  0  0
   36.5258   57.7028   66.2594 C   0  0  0  0  0  0  0  0  0  0  0  0
   36.2227   49.8209   60.1975 C   0  0  0  0  0  0  0  0  0  0  0  0
   34.6992   53.3418   58.3458 C   0  0  0  0  0  0  0  0  0  0  0  0
   40.0037   54.7065   62.6225 C   0  0  0  0  0  0  0  0  0  0  0  0
   35.1357   58.9822   67.6587 C   0  0  0  0  0  0  0  0  0  0  0  0
   36.1448   49.8406   61.7452 C   0  0  0  0  0  0  0  0  0  0  0  0
   41.0897   49.9474   63.6399 Cl  0  0  0  0  0  0  0  0  0  0  0  0
   35.5402   53.2498   65.0072 H   0  0  0  0  0  0  0  0  0  0  0  0
   34.8230   55.4958   65.9025 H   0  0  0  0  0  0  0  0  0  0  0  0
   34.8195   53.1427   55.5914 H   0  0  0  0  0  0  0  0  0  0  0  0
   35.9687   52.0959   63.0235 H   0  0  0  0  0  0  0  0  0  0  0  0
   39.9315   52.4097   64.6326 H   0  0  0  0  0  0  0  0  0  0  0  0
   38.8896   56.8575   64.9647 H   0  0  0  0  0  0  0  0  0  0  0  0
   38.5887   49.0347   62.2874 H   0  0  0  0  0  0  0  0  0  0  0  0
   35.9263   51.6114   54.2841 H   0  0  0  0  0  0  0  0  0  0  0  0
   37.8315   49.8988   57.5229 H   0  0  0  0  0  0  0  0  0  0  0  0
   34.1662   53.0175   59.2500 H   0  0  0  0  0  0  0  0  0  0  0  0
   35.3881   54.1470   58.5798 H   0  0  0  0  0  0  0  0  0  0  0  0
   33.9331   53.7937   57.7060 H   0  0  0  0  0  0  0  0  0  0  0  0
   39.0946   54.8363   62.0267 H   0  0  0  0  0  0  0  0  0  0  0  0
   40.4477   53.7504   62.3432 H   0  0  0  0  0  0  0  0  0  0  0  0
   40.6829   55.5396   62.3890 H   0  0  0  0  0  0  0  0  0  0  0  0
   34.1079   58.9032   67.9970 H   0  0  0  0  0  0  0  0  0  0  0  0
   35.4309   59.8796   67.0915 H   0  0  0  0  0  0  0  0  0  0  0  0
   35.8577   58.9426   68.4821 H   0  0  0  0  0  0  0  0  0  0  0  0
   36.0846   48.8040   62.0664 H   0  0  0  0  0  0  0  0  0  0  0  0
   35.2054   50.3403   61.9818 H   0  0  0  0  0  0  0  0  0  0  0  0
   36.3384   51.8450   60.1506 H   0  0  0  0  0  0  0  0  0  0  0  0
  1  4  1  0  0  0  0
  1 16  1  0  0  0  0
  1 31  1  0  0  0  0
  4 18  1  0  0  0  0
  4 32  1  0  0  0  0
  5 51  1  0  0  0  0
  7 14  1  0  0  0  0
  7 19  1  0  0  0  0
  7 33  1  0  0  0  0
  9 17  1  0  0  0  0
  9 20  1  0  0  0  0
  9 34  1  0  0  0  0
 11 17  1  0  0  0  0
 11 23  1  0  0  0  0
 11 35  1  0  0  0  0
 12 18  1  0  0  0  0
 12 22  1  0  0  0  0
 12 36  1  0  0  0  0
 13 20  1  0  0  0  0
 13 23  1  0  0  0  0
 13 37  1  0  0  0  0
  2 14  1  0  0  0  0
 14 38  1  0  0  0  0
  2 15  1  0  0  0  0
 15 21  1  0  0  0  0
 15 39  1  0  0  0  0
 16 17  1  0  0  0  0
 16 22  1  0  0  0  0
 18 24  1  0  0  0  0
 19 21  1  0  0  0  0
 19 26  1  0  0  0  0
 20 29  1  0  0  0  0
  5 21  1  0  0  0  0
  8 22  1  0  0  0  0
 23 30  1  0  0  0  0
  3 24  1  0  0  0  0
 10 24  1  0  0  0  0
  5 25  1  0  0  0  0
  6 25  1  0  0  0  0
 25 29  1  0  0  0  0
 26 40  1  0  0  0  0
 26 41  1  0  0  0  0
 26 42  1  0  0  0  0
  8 27  1  0  0  0  0
 27 43  1  0  0  0  0
 27 44  1  0  0  0  0
 27 45  1  0  0  0  0
 10 28  1  0  0  0  0
 28 46  1  0  0  0  0
 28 47  1  0  0  0  0
 28 48  1  0  0  0  0
 29 49  1  0  0  0  0
 29 50  1  0  0  0  0
M  END
>  <pdb_header>
REMARK   1 CREATED WITH MDTraj 1.9.4, 2020-08-14
CRYST1   96.846   96.846   96.846  90.00  90.00  90.00 P 1           1 


$$$$
EN300-1722014-neutral-boronic_esterbackwards
  PyMOL2.3          3D                             0

 55 57  0  0  0  0  0  0  0  0999 V2000
   35.0441   51.6992   55.9333 C   0  0  0  0  0  0  0  0  0  0  0  0
   36.9693   50.2070   55.8686 N   0  0  0  0  0  0  0  0  0  0  0  0
   36.2047   48.5549   59.5380 O   0  0  0  0  0  0  0  0  0  0  0  0
   37.7474   50.9844   62.9780 C   0  0  0  0  0  0  0  0  0  0  0  0
   35.9967   50.8011   59.3771 N   0  0  0  0  0  0  0  0  0  0  0  0
   36.0092   52.6482   65.8794 O   0  0  0  0  0  0  0  0  0  0  0  0
   39.8613   50.0830   63.6578 C   0  0  0  0  0  0  0  0  0  0  0  0
   37.8784   51.5844   66.2264 N   0  0  0  0  0  0  0  0  0  0  0  0
   35.8783   50.4130   66.4329 O   0  0  0  0  0  0  0  0  0  0  0  0
   38.3760   48.7934   62.2791 C   0  0  0  0  0  0  0  0  0  0  0  0
   36.0713   50.9703   55.2633 C   0  0  0  0  0  0  0  0  0  0  0  0
   36.8091   50.0539   57.1697 C   0  0  0  0  0  0  0  0  0  0  0  0
   38.9851   51.1906   63.7102 C   0  0  0  0  0  0  0  0  0  0  0  0
   34.9444   51.5540   57.3168 C   0  0  0  0  0  0  0  0  0  0  0  0
   37.4012   49.8100   62.3763 C   0  0  0  0  0  0  0  0  0  0  0  0
   35.9273   50.7568   57.9734 C   0  0  0  0  0  0  0  0  0  0  0  0
   39.5310   48.9242   62.9215 C   0  0  0  0  0  0  0  0  0  0  0  0
   36.0632   49.6196   60.1382 C   0  0  0  0  0  0  0  0  0  0  0  0
   36.5354   51.5960   66.1736 C   0  0  0  0  0  0  0  0  0  0  0  0
   40.2486   52.3213   65.7290 C   0  0  0  0  0  0  0  0  0  0  0  0
   39.3490   52.4245   64.4718 C   0  0  0  0  0  0  0  0  0  0  0  0
   38.7923   52.6065   65.9154 C   0  0  0  0  0  0  0  0  0  0  0  0
   33.9520   52.4493   57.9998 C   0  0  0  0  0  0  0  0  0  0  0  0
   34.0221   51.5745   67.5635 C   0  0  0  0  0  0  0  0  0  0  0  0
   33.7523   50.1950   65.3961 C   0  0  0  0  0  0  0  0  0  0  0  0
   34.1380   49.0705   67.4891 C   0  0  0  0  0  0  0  0  0  0  0  0
   36.0490   49.5945   61.7084 C   0  0  0  0  0  0  0  0  0  0  0  0
   34.4373   50.3676   66.7188 C   0  0  0  0  0  0  0  0  0  0  0  0
   40.7563   47.7605   62.7200 Cl  0  0  0  0  0  0  0  0  0  0  0  0
   34.3818   52.2441   55.2694 H   0  0  0  0  0  0  0  0  0  0  0  0
   36.9873   51.7545   63.0250 H   0  0  0  0  0  0  0  0  0  0  0  0
   40.8141   50.1755   64.1792 H   0  0  0  0  0  0  0  0  0  0  0  0
   38.1167   47.8982   61.7214 H   0  0  0  0  0  0  0  0  0  0  0  0
   36.1542   50.9995   54.1877 H   0  0  0  0  0  0  0  0  0  0  0  0
   37.5239   49.4483   57.7146 H   0  0  0  0  0  0  0  0  0  0  0  0
   40.9340   53.1665   65.8507 H   0  0  0  0  0  0  0  0  0  0  0  0
   40.6941   51.4050   66.1216 H   0  0  0  0  0  0  0  0  0  0  0  0
   39.4597   53.3784   63.9510 H   0  0  0  0  0  0  0  0  0  0  0  0
   38.4466   53.6410   66.0720 H   0  0  0  0  0  0  0  0  0  0  0  0
   34.5051   53.0237   58.7539 H   0  0  0  0  0  0  0  0  0  0  0  0
   33.4133   53.1679   57.3801 H   0  0  0  0  0  0  0  0  0  0  0  0
   33.2035   51.8961   58.5777 H   0  0  0  0  0  0  0  0  0  0  0  0
   33.2006   51.3277   68.2457 H   0  0  0  0  0  0  0  0  0  0  0  0
   34.7617   51.9145   68.2967 H   0  0  0  0  0  0  0  0  0  0  0  0
   33.6449   52.3937   66.9455 H   0  0  0  0  0  0  0  0  0  0  0  0
   32.6642   50.0938   65.5192 H   0  0  0  0  0  0  0  0  0  0  0  0
   34.1012   49.3123   64.8628 H   0  0  0  0  0  0  0  0  0  0  0  0
   33.7639   51.0306   64.6850 H   0  0  0  0  0  0  0  0  0  0  0  0
   34.5103   48.1949   66.9549 H   0  0  0  0  0  0  0  0  0  0  0  0
   34.7895   49.0194   68.3732 H   0  0  0  0  0  0  0  0  0  0  0  0
   33.0880   48.8985   67.7088 H   0  0  0  0  0  0  0  0  0  0  0  0
   35.6511   48.6362   62.0568 H   0  0  0  0  0  0  0  0  0  0  0  0
   35.4029   50.4274   61.9997 H   0  0  0  0  0  0  0  0  0  0  0  0
   35.7856   51.6143   59.9385 H   0  0  0  0  0  0  0  0  0  0  0  0
   38.1755   50.6199   66.3731 H   0  0  0  0  0  0  0  0  0  0  0  0
  1 11  1  0  0  0  0
  1 14  1  0  0  0  0
  1 30  1  0  0  0  0
  4 13  1  0  0  0  0
  4 15  1  0  0  0  0
  4 31  1  0  0  0  0
  5 54  1  0  0  0  0
  7 13  1  0  0  0  0
  7 17  1  0  0  0  0
  7 32  1  0  0  0  0
  8 55  1  0  0  0  0
 10 15  1  0  0  0  0
 10 17  1  0  0  0  0
 10 33  1  0  0  0  0
  2 11  1  0  0  0  0
 11 34  1  0  0  0  0
  2 12  1  0  0  0  0
 12 16  1  0  0  0  0
 12 35  1  0  0  0  0
 13 21  1  0  0  0  0
 14 16  1  0  0  0  0
 14 23  1  0  0  0  0
 15 27  1  0  0  0  0
  5 16  1  0  0  0  0
 17 29  1  0  0  0  0
  3 18  1  0  0  0  0
  5 18  1  0  0  0  0
 18 27  1  0  0  0  0
  6 19  1  0  0  0  0
  8 19  1  0  0  0  0
  9 19  1  0  0  0  0
 20 21  1  0  0  0  0
 20 22  1  0  0  0  0
 20 36  1  0  0  0  0
 20 37  1  0  0  0  0
 21 22  1  0  0  0  0
 21 38  1  0  0  0  0
  8 22  1  0  0  0  0
 22 39  1  0  0  0  0
 23 40  1  0  0  0  0
 23 41  1  0  0  0  0
 23 42  1  0  0  0  0
 24 28  1  0  0  0  0
 24 43  1  0  0  0  0
 24 44  1  0  0  0  0
 24 45  1  0  0  0  0
 25 28  1  0  0  0  0
 25 46  1  0  0  0  0
 25 47  1  0  0  0  0
 25 48  1  0  0  0  0
 26 28  1  0  0  0  0
 26 49  1  0  0  0  0
 26 50  1  0  0  0  0
 26 51  1  0  0  0  0
 27 52  1  0  0  0  0
 27 53  1  0  0  0  0
  9 28  1  0  0  0  0
M  END
>  <pdb_header>
REMARK   1 CREATED WITH MDTraj 1.9.4, 2020-08-14
CRYST1   96.855   96.855   96.855  90.00  90.00  90.00 P 1           1 


$$$$
EN300-364488-neutral-boronic_esterbackwards
  PyMOL2.3          3D                             0

 51 54  0  0  0  0  0  0  0  0999 V2000
   35.9728   55.5611   65.3176 C   0  0  0  0  0  0  0  0  0  0  0  0
   36.5140   51.2218   56.3712 N   0  0  0  0  0  0  0  0  0  0  0  0
   37.1364   52.2430   60.2284 O   0  0  0  0  0  0  0  0  0  0  0  0
   38.2878   56.1568   65.2172 C   0  0  0  0  0  0  0  0  0  0  0  0
   35.1350   51.3014   59.8045 N   0  0  0  0  0  0  0  0  0  0  0  0
   35.6442   56.8476   65.8441 C   0  0  0  0  0  0  0  0  0  0  0  0
   37.9101   57.4583   65.6698 C   0  0  0  0  0  0  0  0  0  0  0  0
   34.1770   51.5914   56.2831 C   0  0  0  0  0  0  0  0  0  0  0  0
   36.7998   53.1634   63.6217 C   0  0  0  0  0  0  0  0  0  0  0  0
   38.9380   53.1607   64.7734 C   0  0  0  0  0  0  0  0  0  0  0  0
   38.3089   51.3783   63.2992 C   0  0  0  0  0  0  0  0  0  0  0  0
   35.3779   51.3913   55.6317 C   0  0  0  0  0  0  0  0  0  0  0  0
   36.4500   51.1664   57.7322 C   0  0  0  0  0  0  0  0  0  0  0  0
   37.3149   55.1763   65.0558 C   0  0  0  0  0  0  0  0  0  0  0  0
   37.6873   53.8323   64.4615 C   0  0  0  0  0  0  0  0  0  0  0  0
   36.6339   57.7702   66.0788 C   0  0  0  0  0  0  0  0  0  0  0  0
   34.0540   51.6591   57.6595 C   0  0  0  0  0  0  0  0  0  0  0  0
   37.0944   51.9290   63.0350 C   0  0  0  0  0  0  0  0  0  0  0  0
   35.1974   51.3864   58.4086 C   0  0  0  0  0  0  0  0  0  0  0  0
   39.2361   51.9495   64.1633 C   0  0  0  0  0  0  0  0  0  0  0  0
   36.1472   51.6505   60.6741 C   0  0  0  0  0  0  0  0  0  0  0  0
   35.0184   59.1773   67.6997 C   0  0  0  0  0  0  0  0  0  0  0  0
   36.1996   59.1093   66.6888 C   0  0  0  0  0  0  0  0  0  0  0  0
   35.8388   60.1960   68.5613 C   0  0  0  0  0  0  0  0  0  0  0  0
   37.0712   59.6903   67.8069 C   0  0  0  0  0  0  0  0  0  0  0  0
   32.7208   51.8887   58.3333 C   0  0  0  0  0  0  0  0  0  0  0  0
   36.1585   51.1984   62.0877 C   0  0  0  0  0  0  0  0  0  0  0  0
   40.6544   51.0187   64.6660 Cl  0  0  0  0  0  0  0  0  0  0  0  0
   35.4143   61.4622   68.3507 F   0  0  0  0  0  0  0  0  0  0  0  0
   35.9289   59.8856   69.8970 F   0  0  0  0  0  0  0  0  0  0  0  0
   37.8810   60.6931   67.4305 F   0  0  0  0  0  0  0  0  0  0  0  0
   37.7954   58.8473   68.5747 F   0  0  0  0  0  0  0  0  0  0  0  0
   35.0868   54.9396   65.2020 H   0  0  0  0  0  0  0  0  0  0  0  0
   39.3203   55.9912   64.9429 H   0  0  0  0  0  0  0  0  0  0  0  0
   34.6172   57.1736   66.0052 H   0  0  0  0  0  0  0  0  0  0  0  0
   38.6418   58.2578   65.6913 H   0  0  0  0  0  0  0  0  0  0  0  0
   33.3477   51.7246   55.5882 H   0  0  0  0  0  0  0  0  0  0  0  0
   35.8437   53.5880   63.3051 H   0  0  0  0  0  0  0  0  0  0  0  0
   39.7242   53.6545   65.3462 H   0  0  0  0  0  0  0  0  0  0  0  0
   38.6144   50.4424   62.8534 H   0  0  0  0  0  0  0  0  0  0  0  0
   35.4332   51.2463   54.5619 H   0  0  0  0  0  0  0  0  0  0  0  0
   37.3331   50.8488   58.2772 H   0  0  0  0  0  0  0  0  0  0  0  0
   34.0543   59.5457   67.3473 H   0  0  0  0  0  0  0  0  0  0  0  0
   34.8359   58.2550   68.2599 H   0  0  0  0  0  0  0  0  0  0  0  0
   35.9821   59.7035   65.7966 H   0  0  0  0  0  0  0  0  0  0  0  0
   32.9532   52.5719   59.1567 H   0  0  0  0  0  0  0  0  0  0  0  0
   32.0279   52.2781   57.5803 H   0  0  0  0  0  0  0  0  0  0  0  0
   32.3056   51.0010   58.8156 H   0  0  0  0  0  0  0  0  0  0  0  0
   36.3203   50.1153   62.0472 H   0  0  0  0  0  0  0  0  0  0  0  0
   35.1457   51.3123   62.4806 H   0  0  0  0  0  0  0  0  0  0  0  0
   34.3487   50.8811   60.2813 H   0  0  0  0  0  0  0  0  0  0  0  0
  1  6  1  0  0  0  0
  1 14  1  0  0  0  0
  1 33  1  0  0  0  0
  4  7  1  0  0  0  0
  4 14  1  0  0  0  0
  4 34  1  0  0  0  0
  5 51  1  0  0  0  0
  6 16  1  0  0  0  0
  6 35  1  0  0  0  0
  7 16  1  0  0  0  0
  7 36  1  0  0  0  0
  8 12  1  0  0  0  0
  8 17  1  0  0  0  0
  8 37  1  0  0  0  0
  9 15  1  0  0  0  0
  9 18  1  0  0  0  0
  9 38  1  0  0  0  0
 10 15  1  0  0  0  0
 10 20  1  0  0  0  0
 10 39  1  0  0  0  0
 11 18  1  0  0  0  0
 11 20  1  0  0  0  0
 11 40  1  0  0  0  0
  2 12  1  0  0  0  0
 12 41  1  0  0  0  0
  2 13  1  0  0  0  0
 13 19  1  0  0  0  0
 13 42  1  0  0  0  0
 14 15  1  0  0  0  0
 16 23  1  0  0  0  0
 17 19  1  0  0  0  0
 17 26  1  0  0  0  0
 18 27  1  0  0  0  0
  5 19  1  0  0  0  0
 20 28  1  0  0  0  0
  3 21  1  0  0  0  0
  5 21  1  0  0  0  0
 21 27  1  0  0  0  0
 22 23  1  0  0  0  0
 22 24  1  0  0  0  0
 22 43  1  0  0  0  0
 22 44  1  0  0  0  0
 23 25  1  0  0  0  0
 23 45  1  0  0  0  0
 24 25  1  0  0  0  0
 24 29  1  0  0  0  0
 24 30  1  0  0  0  0
 25 31  1  0  0  0  0
 25 32  1  0  0  0  0
 26 46  1  0  0  0  0
 26 47  1  0  0  0  0
 26 48  1  0  0  0  0
 27 49  1  0  0  0  0
 27 50  1  0  0  0  0
M  END
>  <pdb_header>
REMARK   1 CREATED WITH MDTraj 1.9.4, 2020-08-14
CRYST1   96.837   96.837   96.837  90.00  90.00  90.00 P 1           1 


$$$$
EN300-26624333-neutral-boronic_esterbackwards
  PyMOL2.3          3D                             0

 48 51  0  0  0  0  0  0  0  0999 V2000
   39.8729   55.6341   62.6526 C   0  0  0  0  0  0  0  0  0  0  0  0
   37.0329   50.9516   55.3067 N   0  0  0  0  0  0  0  0  0  0  0  0
   37.5035   49.7313   59.2494 O   0  0  0  0  0  0  0  0  0  0  0  0
   37.4705   55.5297   62.7900 C   0  0  0  0  0  0  0  0  0  0  0  0
   35.8249   51.1181   58.8287 N   0  0  0  0  0  0  0  0  0  0  0  0
   39.8672   57.0384   62.6754 C   0  0  0  0  0  0  0  0  0  0  0  0
   37.4019   56.9244   62.9823 C   0  0  0  0  0  0  0  0  0  0  0  0
   35.0864   52.3147   55.5025 C   0  0  0  0  0  0  0  0  0  0  0  0
   37.6627   52.7146   62.0031 C   0  0  0  0  0  0  0  0  0  0  0  0
   39.8587   52.6420   62.9410 C   0  0  0  0  0  0  0  0  0  0  0  0
   38.7562   50.6526   62.3350 C   0  0  0  0  0  0  0  0  0  0  0  0
   36.0837   51.7052   54.7376 C   0  0  0  0  0  0  0  0  0  0  0  0
   36.9630   50.7509   56.5846 C   0  0  0  0  0  0  0  0  0  0  0  0
   38.7096   54.8881   62.6202 C   0  0  0  0  0  0  0  0  0  0  0  0
   38.7694   53.4364   62.4815 C   0  0  0  0  0  0  0  0  0  0  0  0
   38.5695   57.6813   62.9450 C   0  0  0  0  0  0  0  0  0  0  0  0
   34.9601   52.1594   56.8528 C   0  0  0  0  0  0  0  0  0  0  0  0
   37.6192   51.3431   61.9380 C   0  0  0  0  0  0  0  0  0  0  0  0
   35.9481   51.3391   57.4526 C   0  0  0  0  0  0  0  0  0  0  0  0
   39.8847   51.2763   62.8395 C   0  0  0  0  0  0  0  0  0  0  0  0
   36.6317   50.4218   59.7092 C   0  0  0  0  0  0  0  0  0  0  0  0
   38.0655   59.7196   64.4027 C   0  0  0  0  0  0  0  0  0  0  0  0
   38.4044   59.1856   63.0252 C   0  0  0  0  0  0  0  0  0  0  0  0
   39.4026   60.0489   63.7885 C   0  0  0  0  0  0  0  0  0  0  0  0
   33.8675   52.8037   57.6445 C   0  0  0  0  0  0  0  0  0  0  0  0
   36.5318   50.5588   61.2474 C   0  0  0  0  0  0  0  0  0  0  0  0
   41.4132   50.3257   63.1111 Cl  0  0  0  0  0  0  0  0  0  0  0  0
   40.3917   59.4419   64.6225 F   0  0  0  0  0  0  0  0  0  0  0  0
   39.6187   61.3288   63.3582 F   0  0  0  0  0  0  0  0  0  0  0  0
   40.8610   55.1697   62.5695 H   0  0  0  0  0  0  0  0  0  0  0  0
   36.5719   54.9389   62.9588 H   0  0  0  0  0  0  0  0  0  0  0  0
   40.7638   57.6215   62.4794 H   0  0  0  0  0  0  0  0  0  0  0  0
   36.4158   57.3601   63.1470 H   0  0  0  0  0  0  0  0  0  0  0  0
   34.3831   52.9889   55.0036 H   0  0  0  0  0  0  0  0  0  0  0  0
   36.8630   53.3470   61.6265 H   0  0  0  0  0  0  0  0  0  0  0  0
   40.6627   53.0549   63.5445 H   0  0  0  0  0  0  0  0  0  0  0  0
   38.7087   49.5692   62.2917 H   0  0  0  0  0  0  0  0  0  0  0  0
   36.2400   52.0237   53.7072 H   0  0  0  0  0  0  0  0  0  0  0  0
   37.6999   50.0482   56.9564 H   0  0  0  0  0  0  0  0  0  0  0  0
   37.3943   60.5680   64.5153 H   0  0  0  0  0  0  0  0  0  0  0  0
   38.1323   59.0309   65.2485 H   0  0  0  0  0  0  0  0  0  0  0  0
   37.8104   59.6507   62.2236 H   0  0  0  0  0  0  0  0  0  0  0  0
   34.2716   53.6216   58.2592 H   0  0  0  0  0  0  0  0  0  0  0  0
   33.0823   53.1788   56.9933 H   0  0  0  0  0  0  0  0  0  0  0  0
   33.4924   51.9835   58.2587 H   0  0  0  0  0  0  0  0  0  0  0  0
   36.5268   49.5103   61.5521 H   0  0  0  0  0  0  0  0  0  0  0  0
   35.5658   51.0376   61.4574 H   0  0  0  0  0  0  0  0  0  0  0  0
   35.0660   51.6237   59.2881 H   0  0  0  0  0  0  0  0  0  0  0  0
  1  6  1  0  0  0  0
  1 14  1  0  0  0  0
  1 30  1  0  0  0  0
  4  7  1  0  0  0  0
  4 14  1  0  0  0  0
  4 31  1  0  0  0  0
  5 48  1  0  0  0  0
  6 16  1  0  0  0  0
  6 32  1  0  0  0  0
  7 16  1  0  0  0  0
  7 33  1  0  0  0  0
  8 12  1  0  0  0  0
  8 17  1  0  0  0  0
  8 34  1  0  0  0  0
  9 15  1  0  0  0  0
  9 18  1  0  0  0  0
  9 35  1  0  0  0  0
 10 15  1  0  0  0  0
 10 20  1  0  0  0  0
 10 36  1  0  0  0  0
 11 18  1  0  0  0  0
 11 20  1  0  0  0  0
 11 37  1  0  0  0  0
  2 12  1  0  0  0  0
 12 38  1  0  0  0  0
  2 13  1  0  0  0  0
 13 19  1  0  0  0  0
 13 39  1  0  0  0  0
 14 15  1  0  0  0  0
 16 23  1  0  0  0  0
 17 19  1  0  0  0  0
 17 25  1  0  0  0  0
 18 26  1  0  0  0  0
  5 19  1  0  0  0  0
 20 27  1  0  0  0  0
  3 21  1  0  0  0  0
  5 21  1  0  0  0  0
 21 26  1  0  0  0  0
 22 23  1  0  0  0  0
 22 24  1  0  0  0  0
 22 40  1  0  0  0  0
 22 41  1  0  0  0  0
 23 24  1  0  0  0  0
 23 42  1  0  0  0  0
 24 28  1  0  0  0  0
 24 29  1  0  0  0  0
 25 43  1  0  0  0  0
 25 44  1  0  0  0  0
 25 45  1  0  0  0  0
 26 46  1  0  0  0  0
 26 47  1  0  0  0  0
M  END
>  <pdb_header>
REMARK   1 CREATED WITH MDTraj 1.9.4, 2020-08-14
CRYST1   96.868   96.868   96.868  90.00  90.00  90.00 P 1           1 


$$$$
EN300-1704613-neutral-boronic_esterbackwards
  PyMOL2.3          3D                             0

 48 50  0  0  0  0  0  0  0  0999 V2000
   36.4653   59.5292   63.9372 C   0  0  0  0  0  0  0  0  0  0  0  0
   35.5425   50.9177   55.4167 N   0  0  0  0  0  0  0  0  0  0  0  0
   37.4846   50.8559   58.8287 O   0  0  0  0  0  0  0  0  0  0  0  0
   37.1039   58.8547   65.0505 C   0  0  0  0  0  0  0  0  0  0  0  0
   35.2364   51.1875   59.0506 N   0  0  0  0  0  0  0  0  0  0  0  0
   36.5370   59.0093   62.6470 C   0  0  0  0  0  0  0  0  0  0  0  0
   37.7974   57.6853   64.7410 C   0  0  0  0  0  0  0  0  0  0  0  0
   37.3047   57.8636   62.4300 C   0  0  0  0  0  0  0  0  0  0  0  0
   34.0714   52.7633   55.9511 C   0  0  0  0  0  0  0  0  0  0  0  0
   37.4033   52.5543   61.9990 C   0  0  0  0  0  0  0  0  0  0  0  0
   39.2905   52.7234   63.4462 C   0  0  0  0  0  0  0  0  0  0  0  0
   38.7938   50.6283   62.3885 C   0  0  0  0  0  0  0  0  0  0  0  0
   34.7470   51.9612   55.0146 C   0  0  0  0  0  0  0  0  0  0  0  0
   35.6170   50.6666   56.6958 C   0  0  0  0  0  0  0  0  0  0  0  0
   37.9347   57.2222   63.4669 C   0  0  0  0  0  0  0  0  0  0  0  0
   38.2065   53.3825   62.8069 C   0  0  0  0  0  0  0  0  0  0  0  0
   34.0765   52.5171   57.3161 C   0  0  0  0  0  0  0  0  0  0  0  0
   37.6342   51.2222   61.7909 C   0  0  0  0  0  0  0  0  0  0  0  0
   35.0317   51.4787   57.7013 C   0  0  0  0  0  0  0  0  0  0  0  0
   39.6584   51.3812   63.1804 C   0  0  0  0  0  0  0  0  0  0  0  0
   37.8076   54.8354   62.9015 C   0  0  0  0  0  0  0  0  0  0  0  0
   38.6018   55.9354   63.2207 C   0  0  0  0  0  0  0  0  0  0  0  0
   36.4806   50.8623   59.5409 C   0  0  0  0  0  0  0  0  0  0  0  0
   33.2902   53.3750   58.2590 C   0  0  0  0  0  0  0  0  0  0  0  0
   36.6451   50.4359   60.9971 C   0  0  0  0  0  0  0  0  0  0  0  0
   40.1386   55.8853   63.3040 C   0  0  0  0  0  0  0  0  0  0  0  0
   41.1869   50.6841   63.6999 Cl  0  0  0  0  0  0  0  0  0  0  0  0
   40.5852   57.1401   62.9536 F   0  0  0  0  0  0  0  0  0  0  0  0
   40.5667   55.6262   64.5665 F   0  0  0  0  0  0  0  0  0  0  0  0
   40.7398   54.9660   62.4572 F   0  0  0  0  0  0  0  0  0  0  0  0
   35.7364   60.3075   64.1316 H   0  0  0  0  0  0  0  0  0  0  0  0
   37.0047   59.3523   66.0156 H   0  0  0  0  0  0  0  0  0  0  0  0
   36.0420   59.5468   61.8486 H   0  0  0  0  0  0  0  0  0  0  0  0
   38.2944   57.1780   65.5616 H   0  0  0  0  0  0  0  0  0  0  0  0
   37.4274   57.3709   61.4696 H   0  0  0  0  0  0  0  0  0  0  0  0
   33.3735   53.5583   55.6803 H   0  0  0  0  0  0  0  0  0  0  0  0
   36.5781   53.0618   61.4981 H   0  0  0  0  0  0  0  0  0  0  0  0
   40.0178   53.2007   64.0876 H   0  0  0  0  0  0  0  0  0  0  0  0
   38.9744   49.6055   62.0886 H   0  0  0  0  0  0  0  0  0  0  0  0
   34.7404   52.1442   53.9537 H   0  0  0  0  0  0  0  0  0  0  0  0
   36.2603   49.8428   56.9929 H   0  0  0  0  0  0  0  0  0  0  0  0
   36.7426   54.9828   62.9914 H   0  0  0  0  0  0  0  0  0  0  0  0
   33.8467   54.2517   58.5967 H   0  0  0  0  0  0  0  0  0  0  0  0
   32.3449   53.6837   57.8004 H   0  0  0  0  0  0  0  0  0  0  0  0
   33.0114   52.9699   59.2367 H   0  0  0  0  0  0  0  0  0  0  0  0
   36.8887   49.3658   61.0233 H   0  0  0  0  0  0  0  0  0  0  0  0
   35.6963   50.4105   61.5530 H   0  0  0  0  0  0  0  0  0  0  0  0
   34.4656   51.0289   59.7043 H   0  0  0  0  0  0  0  0  0  0  0  0
  1  4  1  0  0  0  0
  1  6  1  0  0  0  0
  1 31  1  0  0  0  0
  4  7  1  0  0  0  0
  4 32  1  0  0  0  0
  5 48  1  0  0  0  0
  6  8  1  0  0  0  0
  6 33  1  0  0  0  0
  7 15  1  0  0  0  0
  7 34  1  0  0  0  0
  8 15  1  0  0  0  0
  8 35  1  0  0  0  0
  9 13  1  0  0  0  0
  9 17  1  0  0  0  0
  9 36  1  0  0  0  0
 10 16  1  0  0  0  0
 10 18  1  0  0  0  0
 10 37  1  0  0  0  0
 11 16  1  0  0  0  0
 11 20  1  0  0  0  0
 11 38  1  0  0  0  0
 12 18  1  0  0  0  0
 12 20  1  0  0  0  0
 12 39  1  0  0  0  0
  2 13  1  0  0  0  0
 13 40  1  0  0  0  0
  2 14  1  0  0  0  0
 14 19  1  0  0  0  0
 14 41  1  0  0  0  0
 15 22  1  0  0  0  0
 16 21  1  0  0  0  0
 17 19  1  0  0  0  0
 17 24  1  0  0  0  0
 18 25  1  0  0  0  0
  5 19  1  0  0  0  0
 20 27  1  0  0  0  0
 21 22  1  0  0  0  0
 21 42  1  0  0  0  0
 22 26  1  0  0  0  0
  3 23  1  0  0  0  0
  5 23  1  0  0  0  0
 23 25  1  0  0  0  0
 24 43  1  0  0  0  0
 24 44  1  0  0  0  0
 24 45  1  0  0  0  0
 25 46  1  0  0  0  0
 25 47  1  0  0  0  0
 26 28  1  0  0  0  0
 26 29  1  0  0  0  0
 26 30  1  0  0  0  0
M  END
>  <pdb_header>
REMARK   1 CREATED WITH MDTraj 1.9.4, 2020-08-14
CRYST1   96.865   96.865   96.865  90.00  90.00  90.00 P 1           1 


$$$$
EN300-1086686-neutral-boronic_esterbackwards
  PyMOL2.3          3D                             0

 52 55  0  0  0  0  0  0  0  0999 V2000
   36.2097   55.1011   65.1144 C   0  0  0  0  0  0  0  0  0  0  0  0
   36.7495   50.8099   56.3204 N   0  0  0  0  0  0  0  0  0  0  0  0
   37.2976   52.0541   60.0751 O   0  0  0  0  0  0  0  0  0  0  0  0
   38.5099   55.5257   64.8404 C   0  0  0  0  0  0  0  0  0  0  0  0
   35.2146   51.5529   59.4820 N   0  0  0  0  0  0  0  0  0  0  0  0
   35.8153   58.7708   67.2190 O   0  0  0  0  0  0  0  0  0  0  0  0
   35.9254   56.4538   65.5048 C   0  0  0  0  0  0  0  0  0  0  0  0
   38.3210   56.8570   65.1688 C   0  0  0  0  0  0  0  0  0  0  0  0
   34.6832   51.9674   55.8847 C   0  0  0  0  0  0  0  0  0  0  0  0
   36.7304   52.7751   63.4381 C   0  0  0  0  0  0  0  0  0  0  0  0
   38.8704   52.6001   64.5479 C   0  0  0  0  0  0  0  0  0  0  0  0
   38.1414   50.8783   63.0917 C   0  0  0  0  0  0  0  0  0  0  0  0
   35.8314   51.3671   55.4700 C   0  0  0  0  0  0  0  0  0  0  0  0
   36.5367   50.9425   57.6024 C   0  0  0  0  0  0  0  0  0  0  0  0
   37.4736   54.6574   64.8041 C   0  0  0  0  0  0  0  0  0  0  0  0
   37.6846   53.3374   64.2927 C   0  0  0  0  0  0  0  0  0  0  0  0
   37.0245   57.3698   65.6374 C   0  0  0  0  0  0  0  0  0  0  0  0
   34.3652   51.9911   57.2780 C   0  0  0  0  0  0  0  0  0  0  0  0
   36.9940   51.6053   62.7865 C   0  0  0  0  0  0  0  0  0  0  0  0
   35.3982   51.4915   58.1370 C   0  0  0  0  0  0  0  0  0  0  0  0
   39.0895   51.3304   63.9864 C   0  0  0  0  0  0  0  0  0  0  0  0
   36.1713   51.7140   60.4533 C   0  0  0  0  0  0  0  0  0  0  0  0
   37.8316   59.3500   67.1002 C   0  0  0  0  0  0  0  0  0  0  0  0
   36.7761   59.2424   68.1394 C   0  0  0  0  0  0  0  0  0  0  0  0
   36.7399   58.7519   66.0913 C   0  0  0  0  0  0  0  0  0  0  0  0
   32.9951   52.4359   57.7100 C   0  0  0  0  0  0  0  0  0  0  0  0
   36.3424   59.6212   64.9259 C   0  0  0  0  0  0  0  0  0  0  0  0
   36.0598   51.0036   61.8116 C   0  0  0  0  0  0  0  0  0  0  0  0
   40.3950   50.3377   64.5479 Cl  0  0  0  0  0  0  0  0  0  0  0  0
   35.3957   54.3887   65.0292 H   0  0  0  0  0  0  0  0  0  0  0  0
   39.4901   55.1477   64.5579 H   0  0  0  0  0  0  0  0  0  0  0  0
   34.8887   56.7442   65.6401 H   0  0  0  0  0  0  0  0  0  0  0  0
   39.1527   57.5583   65.3238 H   0  0  0  0  0  0  0  0  0  0  0  0
   34.0264   52.3782   55.1255 H   0  0  0  0  0  0  0  0  0  0  0  0
   35.8221   53.2673   63.0996 H   0  0  0  0  0  0  0  0  0  0  0  0
   39.5809   53.0390   65.2427 H   0  0  0  0  0  0  0  0  0  0  0  0
   38.3622   49.9177   62.6374 H   0  0  0  0  0  0  0  0  0  0  0  0
   36.0062   51.3833   54.3975 H   0  0  0  0  0  0  0  0  0  0  0  0
   37.2085   50.4321   58.2818 H   0  0  0  0  0  0  0  0  0  0  0  0
   38.6579   58.7293   67.4521 H   0  0  0  0  0  0  0  0  0  0  0  0
   38.3147   60.2831   66.7838 H   0  0  0  0  0  0  0  0  0  0  0  0
   37.0786   58.5487   68.9222 H   0  0  0  0  0  0  0  0  0  0  0  0
   36.6527   60.2105   68.6490 H   0  0  0  0  0  0  0  0  0  0  0  0
   32.9253   53.5054   57.9525 H   0  0  0  0  0  0  0  0  0  0  0  0
   32.3247   52.2877   56.8603 H   0  0  0  0  0  0  0  0  0  0  0  0
   32.5965   51.8264   58.5334 H   0  0  0  0  0  0  0  0  0  0  0  0
   35.4974   59.2038   64.3747 H   0  0  0  0  0  0  0  0  0  0  0  0
   35.9928   60.6265   65.1762 H   0  0  0  0  0  0  0  0  0  0  0  0
   37.2316   59.6285   64.2944 H   0  0  0  0  0  0  0  0  0  0  0  0
   36.2748   49.9507   61.6094 H   0  0  0  0  0  0  0  0  0  0  0  0
   35.0347   50.9715   62.1941 H   0  0  0  0  0  0  0  0  0  0  0  0
   34.3077   51.2782   59.8737 H   0  0  0  0  0  0  0  0  0  0  0  0
  1  7  1  0  0  0  0
  1 15  1  0  0  0  0
  1 30  1  0  0  0  0
  4  8  1  0  0  0  0
  4 15  1  0  0  0  0
  4 31  1  0  0  0  0
  5 52  1  0  0  0  0
  7 17  1  0  0  0  0
  7 32  1  0  0  0  0
  8 17  1  0  0  0  0
  8 33  1  0  0  0  0
  9 13  1  0  0  0  0
  9 18  1  0  0  0  0
  9 34  1  0  0  0  0
 10 16  1  0  0  0  0
 10 19  1  0  0  0  0
 10 35  1  0  0  0  0
 11 16  1  0  0  0  0
 11 21  1  0  0  0  0
 11 36  1  0  0  0  0
 12 19  1  0  0  0  0
 12 21  1  0  0  0  0
 12 37  1  0  0  0  0
  2 13  1  0  0  0  0
 13 38  1  0  0  0  0
  2 14  1  0  0  0  0
 14 20  1  0  0  0  0
 14 39  1  0  0  0  0
 15 16  1  0  0  0  0
 17 25  1  0  0  0  0
 18 20  1  0  0  0  0
 18 26  1  0  0  0  0
 19 28  1  0  0  0  0
  5 20  1  0  0  0  0
 21 29  1  0  0  0  0
  3 22  1  0  0  0  0
  5 22  1  0  0  0  0
 22 28  1  0  0  0  0
 23 24  1  0  0  0  0
 23 25  1  0  0  0  0
 23 40  1  0  0  0  0
 23 41  1  0  0  0  0
  6 24  1  0  0  0  0
 24 42  1  0  0  0  0
 24 43  1  0  0  0  0
  6 25  1  0  0  0  0
 25 27  1  0  0  0  0
 26 44  1  0  0  0  0
 26 45  1  0  0  0  0
 26 46  1  0  0  0  0
 27 47  1  0  0  0  0
 27 48  1  0  0  0  0
 27 49  1  0  0  0  0
 28 50  1  0  0  0  0
 28 51  1  0  0  0  0
M  END
>  <pdb_header>
REMARK   1 CREATED WITH MDTraj 1.9.4, 2020-08-14
CRYST1   96.774   96.774   96.774  90.00  90.00  90.00 P 1           1 


$$$$
EN300-299518-neutral-boronic_esterbackwards
  PyMOL2.3          3D                             0

 47 49  0  0  0  0  0  0  0  0999 V2000
   34.7717   51.4827   56.2143 C   0  0  0  0  0  0  0  0  0  0  0  0
   37.0624   50.7104   56.0008 N   0  0  0  0  0  0  0  0  0  0  0  0
   38.3802   58.4480   65.2695 O   0  0  0  0  0  0  0  0  0  0  0  0
   38.2807   52.3181   62.9610 C   0  0  0  0  0  0  0  0  0  0  0  0
   40.2956   54.9105   64.6196 N   0  0  0  0  0  0  0  0  0  0  0  0
   37.6525   51.9635   60.0177 O   0  0  0  0  0  0  0  0  0  0  0  0
   40.2986   51.8706   64.1248 C   0  0  0  0  0  0  0  0  0  0  0  0
   39.8593   56.1579   65.0191 N   0  0  0  0  0  0  0  0  0  0  0  0
   36.3308   57.2971   64.7301 O   0  0  0  0  0  0  0  0  0  0  0  0
   39.2116   50.1174   62.9679 C   0  0  0  0  0  0  0  0  0  0  0  0
   35.9902   50.5655   59.5651 N   0  0  0  0  0  0  0  0  0  0  0  0
   38.0612   55.0101   64.2570 C   0  0  0  0  0  0  0  0  0  0  0  0
   35.9426   51.1771   55.4741 C   0  0  0  0  0  0  0  0  0  0  0  0
   37.0207   50.5422   57.3545 C   0  0  0  0  0  0  0  0  0  0  0  0
   39.3277   52.8154   63.7376 C   0  0  0  0  0  0  0  0  0  0  0  0
   34.7166   51.2582   57.6085 C   0  0  0  0  0  0  0  0  0  0  0  0
   38.1946   50.9749   62.6119 C   0  0  0  0  0  0  0  0  0  0  0  0
   35.8821   50.7590   58.1792 C   0  0  0  0  0  0  0  0  0  0  0  0
   40.2584   50.5548   63.7821 C   0  0  0  0  0  0  0  0  0  0  0  0
   39.2761   54.1901   64.2057 C   0  0  0  0  0  0  0  0  0  0  0  0
   38.4753   56.1991   64.7208 C   0  0  0  0  0  0  0  0  0  0  0  0
   37.6794   57.3945   64.9725 C   0  0  0  0  0  0  0  0  0  0  0  0
   36.9815   50.9939   60.4100 C   0  0  0  0  0  0  0  0  0  0  0  0
   33.5723   51.8107   58.4467 C   0  0  0  0  0  0  0  0  0  0  0  0
   35.1667   58.3553   66.6868 C   0  0  0  0  0  0  0  0  0  0  0  0
   37.0716   50.4047   61.8490 C   0  0  0  0  0  0  0  0  0  0  0  0
   35.5774   58.4751   65.2334 C   0  0  0  0  0  0  0  0  0  0  0  0
   41.4189   49.4230   64.3401 Cl  0  0  0  0  0  0  0  0  0  0  0  0
   33.8942   51.9408   55.7812 H   0  0  0  0  0  0  0  0  0  0  0  0
   37.4437   52.9785   62.7783 H   0  0  0  0  0  0  0  0  0  0  0  0
   41.0328   52.1790   64.8602 H   0  0  0  0  0  0  0  0  0  0  0  0
   39.1070   49.0756   62.6837 H   0  0  0  0  0  0  0  0  0  0  0  0
   37.0332   54.8203   63.9512 H   0  0  0  0  0  0  0  0  0  0  0  0
   35.9872   51.2721   54.3947 H   0  0  0  0  0  0  0  0  0  0  0  0
   37.9105   50.2103   57.8634 H   0  0  0  0  0  0  0  0  0  0  0  0
   33.5768   51.3937   59.4550 H   0  0  0  0  0  0  0  0  0  0  0  0
   33.8619   52.8667   58.4990 H   0  0  0  0  0  0  0  0  0  0  0  0
   32.6644   51.7074   57.8324 H   0  0  0  0  0  0  0  0  0  0  0  0
   36.0352   58.2482   67.3409 H   0  0  0  0  0  0  0  0  0  0  0  0
   34.6323   59.2941   66.9058 H   0  0  0  0  0  0  0  0  0  0  0  0
   34.5196   57.4944   66.8508 H   0  0  0  0  0  0  0  0  0  0  0  0
   37.2213   49.3354   61.6682 H   0  0  0  0  0  0  0  0  0  0  0  0
   36.1673   50.6873   62.3993 H   0  0  0  0  0  0  0  0  0  0  0  0
   34.6655   58.5684   64.6370 H   0  0  0  0  0  0  0  0  0  0  0  0
   36.1067   59.3874   64.9462 H   0  0  0  0  0  0  0  0  0  0  0  0
   40.4680   56.8052   65.5226 H   0  0  0  0  0  0  0  0  0  0  0  0
   35.2163   50.0725   60.0058 H   0  0  0  0  0  0  0  0  0  0  0  0
  1 13  1  0  0  0  0
  1 16  1  0  0  0  0
  1 29  1  0  0  0  0
  4 15  1  0  0  0  0
  4 17  1  0  0  0  0
  4 30  1  0  0  0  0
  5  8  1  0  0  0  0
  7 15  1  0  0  0  0
  7 19  1  0  0  0  0
  7 31  1  0  0  0  0
  8 46  1  0  0  0  0
 10 17  1  0  0  0  0
 10 19  1  0  0  0  0
 10 32  1  0  0  0  0
 11 47  1  0  0  0  0
 12 20  1  0  0  0  0
 12 21  1  0  0  0  0
 12 33  1  0  0  0  0
  2 13  1  0  0  0  0
 13 34  1  0  0  0  0
  2 14  1  0  0  0  0
 14 18  1  0  0  0  0
 14 35  1  0  0  0  0
 15 20  1  0  0  0  0
 16 18  1  0  0  0  0
 16 24  1  0  0  0  0
 17 26  1  0  0  0  0
 11 18  1  0  0  0  0
 19 28  1  0  0  0  0
  5 20  1  0  0  0  0
  8 21  1  0  0  0  0
 21 22  1  0  0  0  0
  3 22  1  0  0  0  0
  9 22  1  0  0  0  0
  6 23  1  0  0  0  0
 11 23  1  0  0  0  0
 23 26  1  0  0  0  0
 24 36  1  0  0  0  0
 24 37  1  0  0  0  0
 24 38  1  0  0  0  0
 25 27  1  0  0  0  0
 25 39  1  0  0  0  0
 25 40  1  0  0  0  0
 25 41  1  0  0  0  0
 26 42  1  0  0  0  0
 26 43  1  0  0  0  0
  9 27  1  0  0  0  0
 27 44  1  0  0  0  0
 27 45  1  0  0  0  0
M  END
>  <pdb_header>
REMARK   1 CREATED WITH MDTraj 1.9.4, 2020-08-14
CRYST1   96.864   96.864   96.864  90.00  90.00  90.00 P 1           1 


$$$$
EN300-391783-neutral-boronic_esterbackwards
  PyMOL2.3          3D                             0

 50 52  0  0  0  0  0  0  0  0999 V2000
   35.5039   52.5713   57.5826 C   0  0  0  0  0  0  0  0  0  0  0  0
   36.1709   50.7813   56.1677 N   0  0  0  0  0  0  0  0  0  0  0  0
   36.0243   47.5198   59.1261 O   0  0  0  0  0  0  0  0  0  0  0  0
   37.6165   49.7970   62.8420 C   0  0  0  0  0  0  0  0  0  0  0  0
   36.1534   49.7258   59.7811 N   0  0  0  0  0  0  0  0  0  0  0  0
   39.9557   49.3708   63.4595 C   0  0  0  0  0  0  0  0  0  0  0  0
   38.7314   47.7812   62.2161 C   0  0  0  0  0  0  0  0  0  0  0  0
   35.8363   52.0670   56.3238 C   0  0  0  0  0  0  0  0  0  0  0  0
   36.2107   49.9487   57.2411 C   0  0  0  0  0  0  0  0  0  0  0  0
   38.7852   50.1803   63.5818 C   0  0  0  0  0  0  0  0  0  0  0  0
   35.5422   51.7679   58.7120 C   0  0  0  0  0  0  0  0  0  0  0  0
   37.5545   48.5419   62.1569 C   0  0  0  0  0  0  0  0  0  0  0  0
   35.9594   50.4569   58.6034 C   0  0  0  0  0  0  0  0  0  0  0  0
   39.9801   48.2531   62.7228 C   0  0  0  0  0  0  0  0  0  0  0  0
   36.1854   48.3780   59.9707 C   0  0  0  0  0  0  0  0  0  0  0  0
   39.8707   51.7979   65.4063 C   0  0  0  0  0  0  0  0  0  0  0  0
   38.6496   51.3671   64.5257 C   0  0  0  0  0  0  0  0  0  0  0  0
   39.5193   52.5776   64.1741 C   0  0  0  0  0  0  0  0  0  0  0  0
   35.2117   52.4104   60.0415 C   0  0  0  0  0  0  0  0  0  0  0  0
   38.3291   54.4196   63.0018 C   0  0  0  0  0  0  0  0  0  0  0  0
   40.1643   54.9984   64.5843 C   0  0  0  0  0  0  0  0  0  0  0  0
   37.9103   54.2651   65.3935 C   0  0  0  0  0  0  0  0  0  0  0  0
   36.3687   48.0352   61.4167 C   0  0  0  0  0  0  0  0  0  0  0  0
   38.9886   54.0933   64.2945 C   0  0  0  0  0  0  0  0  0  0  0  0
   41.3688   47.1323   62.7862 Cl  0  0  0  0  0  0  0  0  0  0  0  0
   35.2530   53.6224   57.7311 H   0  0  0  0  0  0  0  0  0  0  0  0
   36.7340   50.4314   62.8989 H   0  0  0  0  0  0  0  0  0  0  0  0
   40.8570   49.6409   63.9946 H   0  0  0  0  0  0  0  0  0  0  0  0
   38.6189   46.7844   61.8053 H   0  0  0  0  0  0  0  0  0  0  0  0
   35.8092   52.6930   55.4405 H   0  0  0  0  0  0  0  0  0  0  0  0
   36.5910   48.9462   57.0706 H   0  0  0  0  0  0  0  0  0  0  0  0
   39.3556   51.9506   66.3585 H   0  0  0  0  0  0  0  0  0  0  0  0
   40.1052   52.5610   66.1632 H   0  0  0  0  0  0  0  0  0  0  0  0
   37.6278   51.4335   64.9071 H   0  0  0  0  0  0  0  0  0  0  0  0
   40.1684   52.3842   63.3107 H   0  0  0  0  0  0  0  0  0  0  0  0
   34.2910   51.9803   60.4560 H   0  0  0  0  0  0  0  0  0  0  0  0
   35.9919   52.2086   60.7838 H   0  0  0  0  0  0  0  0  0  0  0  0
   35.1312   53.4884   59.8701 H   0  0  0  0  0  0  0  0  0  0  0  0
   38.9350   54.4626   62.0890 H   0  0  0  0  0  0  0  0  0  0  0  0
   37.9208   55.4294   63.0964 H   0  0  0  0  0  0  0  0  0  0  0  0
   37.4721   53.8174   62.7014 H   0  0  0  0  0  0  0  0  0  0  0  0
   40.5615   55.5898   63.7477 H   0  0  0  0  0  0  0  0  0  0  0  0
   39.9325   55.7100   65.3845 H   0  0  0  0  0  0  0  0  0  0  0  0
   40.9807   54.3564   64.9398 H   0  0  0  0  0  0  0  0  0  0  0  0
   38.3103   54.1385   66.4114 H   0  0  0  0  0  0  0  0  0  0  0  0
   37.0755   53.5690   65.3710 H   0  0  0  0  0  0  0  0  0  0  0  0
   37.6335   55.3139   65.3392 H   0  0  0  0  0  0  0  0  0  0  0  0
   36.4547   46.9431   61.4529 H   0  0  0  0  0  0  0  0  0  0  0  0
   35.4196   48.3598   61.8687 H   0  0  0  0  0  0  0  0  0  0  0  0
   36.1363   50.1990   60.6898 H   0  0  0  0  0  0  0  0  0  0  0  0
  1  8  1  0  0  0  0
  1 11  1  0  0  0  0
  1 26  1  0  0  0  0
  4 10  1  0  0  0  0
  4 12  1  0  0  0  0
  4 27  1  0  0  0  0
  5 50  1  0  0  0  0
  6 10  1  0  0  0  0
  6 14  1  0  0  0  0
  6 28  1  0  0  0  0
  7 12  1  0  0  0  0
  7 14  1  0  0  0  0
  7 29  1  0  0  0  0
  2  8  1  0  0  0  0
  8 30  1  0  0  0  0
  2  9  1  0  0  0  0
  9 13  1  0  0  0  0
  9 31  1  0  0  0  0
 10 17  1  0  0  0  0
 11 13  1  0  0  0  0
 11 19  1  0  0  0  0
 12 23  1  0  0  0  0
  5 13  1  0  0  0  0
 14 25  1  0  0  0  0
  3 15  1  0  0  0  0
  5 15  1  0  0  0  0
 15 23  1  0  0  0  0
 16 17  1  0  0  0  0
 16 18  1  0  0  0  0
 16 32  1  0  0  0  0
 16 33  1  0  0  0  0
 17 18  1  0  0  0  0
 17 34  1  0  0  0  0
 18 24  1  0  0  0  0
 18 35  1  0  0  0  0
 19 36  1  0  0  0  0
 19 37  1  0  0  0  0
 19 38  1  0  0  0  0
 20 24  1  0  0  0  0
 20 39  1  0  0  0  0
 20 40  1  0  0  0  0
 20 41  1  0  0  0  0
 21 24  1  0  0  0  0
 21 42  1  0  0  0  0
 21 43  1  0  0  0  0
 21 44  1  0  0  0  0
 22 24  1  0  0  0  0
 22 45  1  0  0  0  0
 22 46  1  0  0  0  0
 22 47  1  0  0  0  0
 23 48  1  0  0  0  0
 23 49  1  0  0  0  0
M  END
>  <pdb_header>
REMARK   1 CREATED WITH MDTraj 1.9.4, 2020-08-14
CRYST1   96.984   96.984   96.984  90.00  90.00  90.00 P 1           1 


$$$$
EN300-129678-neutral-boronic_esterbackwards
  PyMOL2.3          3D                             0

 49 51  0  0  0  0  0  0  0  0999 V2000
   34.4782   51.7791   56.3175 C   0  0  0  0  0  0  0  0  0  0  0  0
   36.7210   50.8857   55.9344 N   0  0  0  0  0  0  0  0  0  0  0  0
   38.9149   58.6447   62.1419 O   0  0  0  0  0  0  0  0  0  0  0  0
   38.9338   55.1228   62.6119 C   0  0  0  0  0  0  0  0  0  0  0  0
   40.5753   55.9821   64.7163 N   0  0  0  0  0  0  0  0  0  0  0  0
   37.6543   51.8284   59.9810 O   0  0  0  0  0  0  0  0  0  0  0  0
   38.3304   52.2263   62.7178 C   0  0  0  0  0  0  0  0  0  0  0  0
   35.7609   50.7905   59.5242 N   0  0  0  0  0  0  0  0  0  0  0  0
   37.4620   57.1102   61.2826 O   0  0  0  0  0  0  0  0  0  0  0  0
   40.4551   51.7624   63.7022 C   0  0  0  0  0  0  0  0  0  0  0  0
   39.0927   50.0098   62.9428 C   0  0  0  0  0  0  0  0  0  0  0  0
   35.6251   51.5260   55.4930 C   0  0  0  0  0  0  0  0  0  0  0  0
   40.4102   54.6668   64.4103 C   0  0  0  0  0  0  0  0  0  0  0  0
   39.8772   56.8141   63.9360 C   0  0  0  0  0  0  0  0  0  0  0  0
   36.6754   50.5435   57.2547 C   0  0  0  0  0  0  0  0  0  0  0  0
   39.6012   54.2050   63.4629 C   0  0  0  0  0  0  0  0  0  0  0  0
   39.4894   52.7609   63.2841 C   0  0  0  0  0  0  0  0  0  0  0  0
   39.0619   56.4685   62.9075 C   0  0  0  0  0  0  0  0  0  0  0  0
   34.5063   51.4757   57.6038 C   0  0  0  0  0  0  0  0  0  0  0  0
   38.0982   50.8715   62.4974 C   0  0  0  0  0  0  0  0  0  0  0  0
   35.6831   50.9672   58.1416 C   0  0  0  0  0  0  0  0  0  0  0  0
   40.2270   50.4606   63.6217 C   0  0  0  0  0  0  0  0  0  0  0  0
   38.4628   57.5356   62.0752 C   0  0  0  0  0  0  0  0  0  0  0  0
   36.8435   50.9721   60.2952 C   0  0  0  0  0  0  0  0  0  0  0  0
   33.3130   51.6607   58.4527 C   0  0  0  0  0  0  0  0  0  0  0  0
   35.9956   58.9505   60.6607 C   0  0  0  0  0  0  0  0  0  0  0  0
   36.9159   50.3610   61.6995 C   0  0  0  0  0  0  0  0  0  0  0  0
   37.0174   57.9593   60.2452 C   0  0  0  0  0  0  0  0  0  0  0  0
   41.4034   49.3507   64.1957 Cl  0  0  0  0  0  0  0  0  0  0  0  0
   33.5172   52.0284   55.8515 H   0  0  0  0  0  0  0  0  0  0  0  0
   38.3208   54.7363   61.8017 H   0  0  0  0  0  0  0  0  0  0  0  0
   37.5644   52.9268   62.3924 H   0  0  0  0  0  0  0  0  0  0  0  0
   41.3938   52.0386   64.1843 H   0  0  0  0  0  0  0  0  0  0  0  0
   38.9754   48.9309   62.9833 H   0  0  0  0  0  0  0  0  0  0  0  0
   35.6040   51.7289   54.4275 H   0  0  0  0  0  0  0  0  0  0  0  0
   41.0289   53.9662   64.9718 H   0  0  0  0  0  0  0  0  0  0  0  0
   40.1669   57.8580   63.9293 H   0  0  0  0  0  0  0  0  0  0  0  0
   37.5130   49.9730   57.6660 H   0  0  0  0  0  0  0  0  0  0  0  0
   32.4994   52.1433   57.9111 H   0  0  0  0  0  0  0  0  0  0  0  0
   33.5818   52.1919   59.3728 H   0  0  0  0  0  0  0  0  0  0  0  0
   32.9403   50.6936   58.7873 H   0  0  0  0  0  0  0  0  0  0  0  0
   35.1844   58.4481   61.2011 H   0  0  0  0  0  0  0  0  0  0  0  0
   36.5525   59.7159   61.2176 H   0  0  0  0  0  0  0  0  0  0  0  0
   35.5800   59.4476   59.7815 H   0  0  0  0  0  0  0  0  0  0  0  0
   36.9445   49.2715   61.5739 H   0  0  0  0  0  0  0  0  0  0  0  0
   35.9903   50.4759   62.2554 H   0  0  0  0  0  0  0  0  0  0  0  0
   36.4711   57.2844   59.5679 H   0  0  0  0  0  0  0  0  0  0  0  0
   37.8761   58.3284   59.6852 H   0  0  0  0  0  0  0  0  0  0  0  0
   35.1350   50.1555   60.0178 H   0  0  0  0  0  0  0  0  0  0  0  0
  1 12  1  0  0  0  0
  1 19  1  0  0  0  0
  1 30  1  0  0  0  0
  4 16  1  0  0  0  0
  4 18  1  0  0  0  0
  4 31  1  0  0  0  0
  7 17  1  0  0  0  0
  7 20  1  0  0  0  0
  7 32  1  0  0  0  0
  8 49  1  0  0  0  0
 10 17  1  0  0  0  0
 10 22  1  0  0  0  0
 10 33  1  0  0  0  0
 11 20  1  0  0  0  0
 11 22  1  0  0  0  0
 11 34  1  0  0  0  0
  2 12  1  0  0  0  0
 12 35  1  0  0  0  0
  5 13  1  0  0  0  0
 13 16  1  0  0  0  0
 13 36  1  0  0  0  0
  5 14  1  0  0  0  0
 14 18  1  0  0  0  0
 14 37  1  0  0  0  0
  2 15  1  0  0  0  0
 15 21  1  0  0  0  0
 15 38  1  0  0  0  0
 16 17  1  0  0  0  0
 18 23  1  0  0  0  0
 19 21  1  0  0  0  0
 19 25  1  0  0  0  0
 20 27  1  0  0  0  0
  8 21  1  0  0  0  0
 22 29  1  0  0  0  0
  3 23  1  0  0  0  0
  9 23  1  0  0  0  0
  6 24  1  0  0  0  0
  8 24  1  0  0  0  0
 24 27  1  0  0  0  0
 25 39  1  0  0  0  0
 25 40  1  0  0  0  0
 25 41  1  0  0  0  0
 26 28  1  0  0  0  0
 26 42  1  0  0  0  0
 26 43  1  0  0  0  0
 26 44  1  0  0  0  0
 27 45  1  0  0  0  0
 27 46  1  0  0  0  0
  9 28  1  0  0  0  0
 28 47  1  0  0  0  0
 28 48  1  0  0  0  0
M  END
>  <pdb_header>
REMARK   1 CREATED WITH MDTraj 1.9.4, 2020-08-14
CRYST1   96.929   96.929   96.929  90.00  90.00  90.00 P 1           1 


$$$$
EN300-106778-neutral-boronic_esterbackwards
  PyMOL2.3          3D                             0

 44 46  0  0  0  0  0  0  0  0999 V2000
   38.5118   55.6745   64.1264 C   0  0  0  0  0  0  0  0  0  0  0  0
   36.5052   50.7655   55.8737 N   0  0  0  0  0  0  0  0  0  0  0  0
   37.8969   51.6356   59.6985 O   0  0  0  0  0  0  0  0  0  0  0  0
   38.6538   57.0967   64.4225 C   0  0  0  0  0  0  0  0  0  0  0  0
   35.7185   50.9807   59.4910 N   0  0  0  0  0  0  0  0  0  0  0  0
   34.2623   51.5755   56.2246 C   0  0  0  0  0  0  0  0  0  0  0  0
   38.2556   52.9521   62.7454 C   0  0  0  0  0  0  0  0  0  0  0  0
   40.3442   52.5756   63.6894 C   0  0  0  0  0  0  0  0  0  0  0  0
   39.1852   50.7001   62.7842 C   0  0  0  0  0  0  0  0  0  0  0  0
   35.4072   51.2336   55.4123 C   0  0  0  0  0  0  0  0  0  0  0  0
   36.6424   50.6693   57.1930 C   0  0  0  0  0  0  0  0  0  0  0  0
   39.6290   54.9474   63.5415 C   0  0  0  0  0  0  0  0  0  0  0  0
   39.4097   53.4976   63.3144 C   0  0  0  0  0  0  0  0  0  0  0  0
   39.8766   57.7385   64.2412 C   0  0  0  0  0  0  0  0  0  0  0  0
   34.3830   51.4523   57.5930 C   0  0  0  0  0  0  0  0  0  0  0  0
   38.1713   51.5487   62.4055 C   0  0  0  0  0  0  0  0  0  0  0  0
   35.6204   51.0230   58.1041 C   0  0  0  0  0  0  0  0  0  0  0  0
   40.8313   55.6590   63.2305 C   0  0  0  0  0  0  0  0  0  0  0  0
   40.9596   57.0460   63.5986 C   0  0  0  0  0  0  0  0  0  0  0  0
   40.2969   51.1570   63.3964 C   0  0  0  0  0  0  0  0  0  0  0  0
   36.8578   51.1686   60.2479 C   0  0  0  0  0  0  0  0  0  0  0  0
   39.9469   59.1718   64.5847 C   0  0  0  0  0  0  0  0  0  0  0  0
   33.0999   51.6540   58.3410 C   0  0  0  0  0  0  0  0  0  0  0  0
   36.8952   51.0330   61.7570 C   0  0  0  0  0  0  0  0  0  0  0  0
   41.5343   50.1983   63.9404 Cl  0  0  0  0  0  0  0  0  0  0  0  0
   41.8110   55.0965   62.4984 F   0  0  0  0  0  0  0  0  0  0  0  0
   42.0750   57.6889   63.2166 F   0  0  0  0  0  0  0  0  0  0  0  0
   37.5843   55.1209   64.2737 H   0  0  0  0  0  0  0  0  0  0  0  0
   37.8424   57.7267   64.7749 H   0  0  0  0  0  0  0  0  0  0  0  0
   33.3529   52.0156   55.8356 H   0  0  0  0  0  0  0  0  0  0  0  0
   37.4748   53.6473   62.4849 H   0  0  0  0  0  0  0  0  0  0  0  0
   41.2767   52.8841   64.1474 H   0  0  0  0  0  0  0  0  0  0  0  0
   39.1916   49.6795   62.4224 H   0  0  0  0  0  0  0  0  0  0  0  0
   35.4357   51.2725   54.3189 H   0  0  0  0  0  0  0  0  0  0  0  0
   37.5060   50.2468   57.7029 H   0  0  0  0  0  0  0  0  0  0  0  0
   38.9628   59.6282   64.7121 H   0  0  0  0  0  0  0  0  0  0  0  0
   40.5473   59.7416   63.8754 H   0  0  0  0  0  0  0  0  0  0  0  0
   40.3087   59.2523   65.6134 H   0  0  0  0  0  0  0  0  0  0  0  0
   32.9379   52.7336   58.3629 H   0  0  0  0  0  0  0  0  0  0  0  0
   32.2842   51.2102   57.7639 H   0  0  0  0  0  0  0  0  0  0  0  0
   33.0955   51.2898   59.3674 H   0  0  0  0  0  0  0  0  0  0  0  0
   36.6474   49.9746   61.9440 H   0  0  0  0  0  0  0  0  0  0  0  0
   36.1067   51.5675   62.2950 H   0  0  0  0  0  0  0  0  0  0  0  0
   34.8811   50.7390   60.0056 H   0  0  0  0  0  0  0  0  0  0  0  0
  1  4  1  0  0  0  0
  1 12  1  0  0  0  0
  1 28  1  0  0  0  0
  4 14  1  0  0  0  0
  4 29  1  0  0  0  0
  5 44  1  0  0  0  0
  6 10  1  0  0  0  0
  6 15  1  0  0  0  0
  6 30  1  0  0  0  0
  7 13  1  0  0  0  0
  7 16  1  0  0  0  0
  7 31  1  0  0  0  0
  8 13  1  0  0  0  0
  8 20  1  0  0  0  0
  8 32  1  0  0  0  0
  9 16  1  0  0  0  0
  9 20  1  0  0  0  0
  9 33  1  0  0  0  0
  2 10  1  0  0  0  0
 10 34  1  0  0  0  0
  2 11  1  0  0  0  0
 11 17  1  0  0  0  0
 11 35  1  0  0  0  0
 12 13  1  0  0  0  0
 12 18  1  0  0  0  0
 14 19  1  0  0  0  0
 14 22  1  0  0  0  0
 15 17  1  0  0  0  0
 15 23  1  0  0  0  0
 16 24  1  0  0  0  0
  5 17  1  0  0  0  0
 18 19  1  0  0  0  0
 18 26  1  0  0  0  0
 19 27  1  0  0  0  0
 20 25  1  0  0  0  0
  3 21  1  0  0  0  0
  5 21  1  0  0  0  0
 21 24  1  0  0  0  0
 22 36  1  0  0  0  0
 22 37  1  0  0  0  0
 22 38  1  0  0  0  0
 23 39  1  0  0  0  0
 23 40  1  0  0  0  0
 23 41  1  0  0  0  0
 24 42  1  0  0  0  0
 24 43  1  0  0  0  0
M  END
>  <pdb_header>
REMARK   1 CREATED WITH MDTraj 1.9.4, 2020-08-14
CRYST1   96.860   96.860   96.860  90.00  90.00  90.00 P 1           1 


$$$$
EN300-1425849-neutral-boronic_esterbackwards
  PyMOL2.3          3D                             0

 44 46  0  0  0  0  0  0  0  0999 V2000
   34.0457   52.8898   55.3820 C   0  0  0  0  0  0  0  0  0  0  0  0
   36.0577   51.6963   55.2333 N   0  0  0  0  0  0  0  0  0  0  0  0
   37.4400   52.3063   59.2336 O   0  0  0  0  0  0  0  0  0  0  0  0
   38.2136   54.5044   62.3485 C   0  0  0  0  0  0  0  0  0  0  0  0
   40.6271   56.9034   65.4627 N   0  0  0  0  0  0  0  0  0  0  0  0
   39.7991   53.1486   63.3735 C   0  0  0  0  0  0  0  0  0  0  0  0
   40.4114   57.6931   64.4048 N   0  0  0  0  0  0  0  0  0  0  0  0
   38.1605   52.1341   61.9662 C   0  0  0  0  0  0  0  0  0  0  0  0
   35.4690   53.2214   58.6801 N   0  0  0  0  0  0  0  0  0  0  0  0
   34.9369   52.1656   54.6488 C   0  0  0  0  0  0  0  0  0  0  0  0
   40.3931   55.6508   65.1665 C   0  0  0  0  0  0  0  0  0  0  0  0
   36.2081   52.0145   56.6069 C   0  0  0  0  0  0  0  0  0  0  0  0
   39.3520   54.4399   63.1251 C   0  0  0  0  0  0  0  0  0  0  0  0
   39.8555   55.5844   63.8418 C   0  0  0  0  0  0  0  0  0  0  0  0
   34.1704   53.2185   56.7219 C   0  0  0  0  0  0  0  0  0  0  0  0
   37.6943   53.4263   61.6970 C   0  0  0  0  0  0  0  0  0  0  0  0
   35.3481   52.8129   57.3718 C   0  0  0  0  0  0  0  0  0  0  0  0
   39.2087   51.9791   62.8606 C   0  0  0  0  0  0  0  0  0  0  0  0
   39.9036   56.8638   63.3971 C   0  0  0  0  0  0  0  0  0  0  0  0
   36.5109   53.0020   59.5295 C   0  0  0  0  0  0  0  0  0  0  0  0
   33.1011   54.0775   57.4511 C   0  0  0  0  0  0  0  0  0  0  0  0
   40.5243   59.1753   64.3507 C   0  0  0  0  0  0  0  0  0  0  0  0
   36.4722   53.6874   60.8995 C   0  0  0  0  0  0  0  0  0  0  0  0
   39.5924   57.3205   61.9525 C   0  0  0  0  0  0  0  0  0  0  0  0
   39.8047   50.4974   63.3969 Cl  0  0  0  0  0  0  0  0  0  0  0  0
   40.5763   57.9891   61.3341 F   0  0  0  0  0  0  0  0  0  0  0  0
   38.4742   58.0820   61.9732 F   0  0  0  0  0  0  0  0  0  0  0  0
   33.2478   53.2751   54.7663 H   0  0  0  0  0  0  0  0  0  0  0  0
   37.6496   55.4083   62.1729 H   0  0  0  0  0  0  0  0  0  0  0  0
   40.5893   53.0688   64.1044 H   0  0  0  0  0  0  0  0  0  0  0  0
   37.7623   51.2048   61.5745 H   0  0  0  0  0  0  0  0  0  0  0  0
   34.8410   52.0606   53.5700 H   0  0  0  0  0  0  0  0  0  0  0  0
   40.5146   54.8023   65.8473 H   0  0  0  0  0  0  0  0  0  0  0  0
   37.1526   51.5891   56.9322 H   0  0  0  0  0  0  0  0  0  0  0  0
   32.3500   54.4961   56.7746 H   0  0  0  0  0  0  0  0  0  0  0  0
   32.5063   53.4545   58.1172 H   0  0  0  0  0  0  0  0  0  0  0  0
   33.5944   54.9744   57.8406 H   0  0  0  0  0  0  0  0  0  0  0  0
   40.9453   59.6347   65.2505 H   0  0  0  0  0  0  0  0  0  0  0  0
   41.2026   59.4611   63.5463 H   0  0  0  0  0  0  0  0  0  0  0  0
   39.5422   59.5949   64.0789 H   0  0  0  0  0  0  0  0  0  0  0  0
   35.6188   53.3259   61.4870 H   0  0  0  0  0  0  0  0  0  0  0  0
   36.2585   54.7508   60.7829 H   0  0  0  0  0  0  0  0  0  0  0  0
   39.4370   56.3650   61.4422 H   0  0  0  0  0  0  0  0  0  0  0  0
   34.7379   53.7818   59.1248 H   0  0  0  0  0  0  0  0  0  0  0  0
  1 10  1  0  0  0  0
  1 15  1  0  0  0  0
  1 28  1  0  0  0  0
  4 13  1  0  0  0  0
  4 16  1  0  0  0  0
  4 29  1  0  0  0  0
  5  7  1  0  0  0  0
  6 13  1  0  0  0  0
  6 18  1  0  0  0  0
  6 30  1  0  0  0  0
  8 16  1  0  0  0  0
  8 18  1  0  0  0  0
  8 31  1  0  0  0  0
  9 44  1  0  0  0  0
  2 10  1  0  0  0  0
 10 32  1  0  0  0  0
  5 11  1  0  0  0  0
 11 14  1  0  0  0  0
 11 33  1  0  0  0  0
  2 12  1  0  0  0  0
 12 17  1  0  0  0  0
 12 34  1  0  0  0  0
 13 14  1  0  0  0  0
 14 19  1  0  0  0  0
 15 17  1  0  0  0  0
 15 21  1  0  0  0  0
 16 23  1  0  0  0  0
  9 17  1  0  0  0  0
 18 25  1  0  0  0  0
  7 19  1  0  0  0  0
 19 24  1  0  0  0  0
  3 20  1  0  0  0  0
  9 20  1  0  0  0  0
 20 23  1  0  0  0  0
 21 35  1  0  0  0  0
 21 36  1  0  0  0  0
 21 37  1  0  0  0  0
  7 22  1  0  0  0  0
 22 38  1  0  0  0  0
 22 39  1  0  0  0  0
 22 40  1  0  0  0  0
 23 41  1  0  0  0  0
 23 42  1  0  0  0  0
 24 26  1  0  0  0  0
 24 27  1  0  0  0  0
 24 43  1  0  0  0  0
M  END
>  <pdb_header>
REMARK   1 CREATED WITH MDTraj 1.9.4, 2020-08-14
CRYST1   96.924   96.924   96.924  90.00  90.00  90.00 P 1           1 


$$$$
EN300-705961-neutral-boronic_esterbackwards
  PyMOL2.3          3D                             0

 48 51  0  0  0  0  0  0  0  0999 V2000
   31.8132   52.9859   63.8788 C   0  0  0  0  0  0  0  0  0  0  0  0
   37.1095   51.0189   58.0109 N   0  0  0  0  0  0  0  0  0  0  0  0
   38.7000   51.6735   61.8314 O   0  0  0  0  0  0  0  0  0  0  0  0
   32.7483   54.0328   64.0012 C   0  0  0  0  0  0  0  0  0  0  0  0
   36.5984   50.8203   61.7284 N   0  0  0  0  0  0  0  0  0  0  0  0
   31.9387   51.8087   64.6871 C   0  0  0  0  0  0  0  0  0  0  0  0
   33.7919   53.7833   64.8812 C   0  0  0  0  0  0  0  0  0  0  0  0
   33.0493   51.6319   65.5629 C   0  0  0  0  0  0  0  0  0  0  0  0
   34.8169   51.5034   58.6356 C   0  0  0  0  0  0  0  0  0  0  0  0
   36.6771   51.5025   65.3238 C   0  0  0  0  0  0  0  0  0  0  0  0
   37.6196   52.9253   67.0171 C   0  0  0  0  0  0  0  0  0  0  0  0
   39.0117   51.9294   65.3145 C   0  0  0  0  0  0  0  0  0  0  0  0
   35.8486   51.1756   57.7193 C   0  0  0  0  0  0  0  0  0  0  0  0
   37.3519   50.8788   59.3054 C   0  0  0  0  0  0  0  0  0  0  0  0
   33.8956   52.6947   65.7329 C   0  0  0  0  0  0  0  0  0  0  0  0
   36.4713   52.4281   66.3927 C   0  0  0  0  0  0  0  0  0  0  0  0
   35.1033   51.4792   59.9483 C   0  0  0  0  0  0  0  0  0  0  0  0
   37.9365   51.2411   64.8569 C   0  0  0  0  0  0  0  0  0  0  0  0
   36.3627   51.0797   60.3225 C   0  0  0  0  0  0  0  0  0  0  0  0
   38.8499   52.7465   66.4682 C   0  0  0  0  0  0  0  0  0  0  0  0
   37.8271   51.0253   62.2934 C   0  0  0  0  0  0  0  0  0  0  0  0
   34.7633   53.8477   67.8687 C   0  0  0  0  0  0  0  0  0  0  0  0
   35.0154   52.7659   66.7870 C   0  0  0  0  0  0  0  0  0  0  0  0
   34.6064   52.4147   68.1929 C   0  0  0  0  0  0  0  0  0  0  0  0
   34.0068   51.8791   60.9846 C   0  0  0  0  0  0  0  0  0  0  0  0
   38.0938   50.2998   63.6479 C   0  0  0  0  0  0  0  0  0  0  0  0
   40.3125   53.5713   67.2085 Cl  0  0  0  0  0  0  0  0  0  0  0  0
   35.5807   51.9047   69.0303 F   0  0  0  0  0  0  0  0  0  0  0  0
   33.2765   52.1079   68.4150 F   0  0  0  0  0  0  0  0  0  0  0  0
   30.9246   53.0754   63.2701 H   0  0  0  0  0  0  0  0  0  0  0  0
   32.5761   54.9290   63.4141 H   0  0  0  0  0  0  0  0  0  0  0  0
   31.1902   51.0321   64.7219 H   0  0  0  0  0  0  0  0  0  0  0  0
   34.5189   54.5625   65.0956 H   0  0  0  0  0  0  0  0  0  0  0  0
   33.2049   50.7013   66.0968 H   0  0  0  0  0  0  0  0  0  0  0  0
   33.8466   51.7809   58.2406 H   0  0  0  0  0  0  0  0  0  0  0  0
   35.8411   51.0056   64.8326 H   0  0  0  0  0  0  0  0  0  0  0  0
   37.5810   53.5523   67.8966 H   0  0  0  0  0  0  0  0  0  0  0  0
   40.0178   51.6988   64.9783 H   0  0  0  0  0  0  0  0  0  0  0  0
   35.5716   51.3352   56.6860 H   0  0  0  0  0  0  0  0  0  0  0  0
   38.3920   50.7535   59.5948 H   0  0  0  0  0  0  0  0  0  0  0  0
   35.6821   54.4267   68.0328 H   0  0  0  0  0  0  0  0  0  0  0  0
   33.8412   54.4145   67.9382 H   0  0  0  0  0  0  0  0  0  0  0  0
   33.3839   51.0097   61.2471 H   0  0  0  0  0  0  0  0  0  0  0  0
   34.4541   52.3232   61.8778 H   0  0  0  0  0  0  0  0  0  0  0  0
   33.3526   52.6727   60.6166 H   0  0  0  0  0  0  0  0  0  0  0  0
   39.0782   49.8320   63.6658 H   0  0  0  0  0  0  0  0  0  0  0  0
   37.3615   49.4999   63.7755 H   0  0  0  0  0  0  0  0  0  0  0  0
   35.8475   50.4339   62.2889 H   0  0  0  0  0  0  0  0  0  0  0  0
  1  4  1  0  0  0  0
  1  6  1  0  0  0  0
  1 30  1  0  0  0  0
  4  7  1  0  0  0  0
  4 31  1  0  0  0  0
  5 48  1  0  0  0  0
  6  8  1  0  0  0  0
  6 32  1  0  0  0  0
  7 15  1  0  0  0  0
  7 33  1  0  0  0  0
  8 15  1  0  0  0  0
  8 34  1  0  0  0  0
  9 13  1  0  0  0  0
  9 17  1  0  0  0  0
  9 35  1  0  0  0  0
 10 16  1  0  0  0  0
 10 18  1  0  0  0  0
 10 36  1  0  0  0  0
 11 16  1  0  0  0  0
 11 20  1  0  0  0  0
 11 37  1  0  0  0  0
 12 18  1  0  0  0  0
 12 20  1  0  0  0  0
 12 38  1  0  0  0  0
  2 13  1  0  0  0  0
 13 39  1  0  0  0  0
  2 14  1  0  0  0  0
 14 19  1  0  0  0  0
 14 40  1  0  0  0  0
 15 23  1  0  0  0  0
 16 23  1  0  0  0  0
 17 19  1  0  0  0  0
 17 25  1  0  0  0  0
 18 26  1  0  0  0  0
  5 19  1  0  0  0  0
 20 27  1  0  0  0  0
  3 21  1  0  0  0  0
  5 21  1  0  0  0  0
 21 26  1  0  0  0  0
 22 23  1  0  0  0  0
 22 24  1  0  0  0  0
 22 41  1  0  0  0  0
 22 42  1  0  0  0  0
 23 24  1  0  0  0  0
 24 28  1  0  0  0  0
 24 29  1  0  0  0  0
 25 43  1  0  0  0  0
 25 44  1  0  0  0  0
 25 45  1  0  0  0  0
 26 46  1  0  0  0  0
 26 47  1  0  0  0  0
M  END
>  <pdb_header>
REMARK   1 CREATED WITH MDTraj 1.9.4, 2020-08-14
CRYST1   96.896   96.896   96.896  90.00  90.00  90.00 P 1           1 


$$$$
EN300-298506-neutral-boronic_esterbackwards
  PyMOL2.3          3D                             0

 47 49  0  0  0  0  0  0  0  0999 V2000
   39.3375   56.5663   61.9066 C   0  0  0  0  0  0  0  0  0  0  0  0
   36.9883   50.5722   56.2215 N   0  0  0  0  0  0  0  0  0  0  0  0
   37.7186   51.7147   60.0448 O   0  0  0  0  0  0  0  0  0  0  0  0
   39.5569   57.8671   61.5482 C   0  0  0  0  0  0  0  0  0  0  0  0
   35.4972   51.5370   59.3861 N   0  0  0  0  0  0  0  0  0  0  0  0
   35.0100   51.8482   55.7871 C   0  0  0  0  0  0  0  0  0  0  0  0
   37.5829   53.9066   62.2650 C   0  0  0  0  0  0  0  0  0  0  0  0
   38.8845   53.9945   64.3199 C   0  0  0  0  0  0  0  0  0  0  0  0
   38.1606   58.5314   63.3703 C   0  0  0  0  0  0  0  0  0  0  0  0
   37.7573   51.9742   63.7266 C   0  0  0  0  0  0  0  0  0  0  0  0
   36.1699   51.2189   55.3706 C   0  0  0  0  0  0  0  0  0  0  0  0
   36.7651   50.6206   57.5462 C   0  0  0  0  0  0  0  0  0  0  0  0
   38.4799   56.1742   62.9593 C   0  0  0  0  0  0  0  0  0  0  0  0
   38.2989   54.6955   63.2118 C   0  0  0  0  0  0  0  0  0  0  0  0
   34.7166   51.9226   57.1256 C   0  0  0  0  0  0  0  0  0  0  0  0
   37.2085   52.6077   62.5923 C   0  0  0  0  0  0  0  0  0  0  0  0
   37.8928   57.2501   63.7784 C   0  0  0  0  0  0  0  0  0  0  0  0
   35.6873   51.3716   58.0269 C   0  0  0  0  0  0  0  0  0  0  0  0
   39.0128   58.8606   62.2928 C   0  0  0  0  0  0  0  0  0  0  0  0
   38.5086   52.6944   64.6060 C   0  0  0  0  0  0  0  0  0  0  0  0
   36.4926   51.7029   60.3352 C   0  0  0  0  0  0  0  0  0  0  0  0
   33.5154   52.7275   57.5655 C   0  0  0  0  0  0  0  0  0  0  0  0
   35.6110   56.5798   64.3732 C   0  0  0  0  0  0  0  0  0  0  0  0
   36.1537   51.8537   61.8408 C   0  0  0  0  0  0  0  0  0  0  0  0
   36.9263   56.9979   64.9476 C   0  0  0  0  0  0  0  0  0  0  0  0
   39.1754   51.9972   66.0171 Cl  0  0  0  0  0  0  0  0  0  0  0  0
   39.1756   60.1705   61.9119 F   0  0  0  0  0  0  0  0  0  0  0  0
   39.7686   55.8091   61.2566 H   0  0  0  0  0  0  0  0  0  0  0  0
   40.1798   58.2154   60.7307 H   0  0  0  0  0  0  0  0  0  0  0  0
   34.4284   52.5134   55.1556 H   0  0  0  0  0  0  0  0  0  0  0  0
   37.2891   54.4788   61.3834 H   0  0  0  0  0  0  0  0  0  0  0  0
   39.4872   54.5076   65.0596 H   0  0  0  0  0  0  0  0  0  0  0  0
   37.8767   59.4228   63.9217 H   0  0  0  0  0  0  0  0  0  0  0  0
   37.6708   50.9041   63.8701 H   0  0  0  0  0  0  0  0  0  0  0  0
   36.3116   51.1993   54.2932 H   0  0  0  0  0  0  0  0  0  0  0  0
   37.2910   50.0223   58.2822 H   0  0  0  0  0  0  0  0  0  0  0  0
   32.9440   53.0818   56.7042 H   0  0  0  0  0  0  0  0  0  0  0  0
   32.8704   52.2125   58.2742 H   0  0  0  0  0  0  0  0  0  0  0  0
   33.8195   53.6087   58.1429 H   0  0  0  0  0  0  0  0  0  0  0  0
   34.8914   56.3081   65.1630 H   0  0  0  0  0  0  0  0  0  0  0  0
   35.7894   55.7020   63.7377 H   0  0  0  0  0  0  0  0  0  0  0  0
   35.2162   57.3686   63.7344 H   0  0  0  0  0  0  0  0  0  0  0  0
   35.8772   50.8503   62.1955 H   0  0  0  0  0  0  0  0  0  0  0  0
   35.2070   52.4032   61.9292 H   0  0  0  0  0  0  0  0  0  0  0  0
   36.8532   57.9204   65.5272 H   0  0  0  0  0  0  0  0  0  0  0  0
   37.2512   56.1145   65.5113 H   0  0  0  0  0  0  0  0  0  0  0  0
   34.5667   51.7294   59.7434 H   0  0  0  0  0  0  0  0  0  0  0  0
  1  4  1  0  0  0  0
  1 13  1  0  0  0  0
  1 28  1  0  0  0  0
  4 19  1  0  0  0  0
  4 29  1  0  0  0  0
  5 47  1  0  0  0  0
  6 11  1  0  0  0  0
  6 15  1  0  0  0  0
  6 30  1  0  0  0  0
  7 14  1  0  0  0  0
  7 16  1  0  0  0  0
  7 31  1  0  0  0  0
  8 14  1  0  0  0  0
  8 20  1  0  0  0  0
  8 32  1  0  0  0  0
  9 17  1  0  0  0  0
  9 19  1  0  0  0  0
  9 33  1  0  0  0  0
 10 16  1  0  0  0  0
 10 20  1  0  0  0  0
 10 34  1  0  0  0  0
  2 11  1  0  0  0  0
 11 35  1  0  0  0  0
  2 12  1  0  0  0  0
 12 18  1  0  0  0  0
 12 36  1  0  0  0  0
 13 14  1  0  0  0  0
 13 17  1  0  0  0  0
 15 18  1  0  0  0  0
 15 22  1  0  0  0  0
 16 24  1  0  0  0  0
 17 25  1  0  0  0  0
  5 18  1  0  0  0  0
 19 27  1  0  0  0  0
 20 26  1  0  0  0  0
  3 21  1  0  0  0  0
  5 21  1  0  0  0  0
 21 24  1  0  0  0  0
 22 37  1  0  0  0  0
 22 38  1  0  0  0  0
 22 39  1  0  0  0  0
 23 25  1  0  0  0  0
 23 40  1  0  0  0  0
 23 41  1  0  0  0  0
 23 42  1  0  0  0  0
 24 43  1  0  0  0  0
 24 44  1  0  0  0  0
 25 45  1  0  0  0  0
 25 46  1  0  0  0  0
M  END
>  <pdb_header>
REMARK   1 CREATED WITH MDTraj 1.9.4, 2020-08-14
CRYST1   96.872   96.872   96.872  90.00  90.00  90.00 P 1           1 


$$$$
EN300-363385-neutral-boronic_esterbackwards
  PyMOL2.3          3D                             0

 47 49  0  0  0  0  0  0  0  0999 V2000
   35.8545   47.5710   68.4524 C   0  0  0  0  0  0  0  0  0  0  0  0
   36.8854   50.7458   56.5623 N   0  0  0  0  0  0  0  0  0  0  0  0
   38.4717   48.0470   69.0401 O   0  0  0  0  0  0  0  0  0  0  0  0
   34.6932   46.9023   67.9829 C   0  0  0  0  0  0  0  0  0  0  0  0
   35.5176   50.8887   60.1308 N   0  0  0  0  0  0  0  0  0  0  0  0
   37.6596   51.4868   60.4111 O   0  0  0  0  0  0  0  0  0  0  0  0
   34.6517   51.7145   56.6838 C   0  0  0  0  0  0  0  0  0  0  0  0
   38.4966   49.8102   67.6496 O   0  0  0  0  0  0  0  0  0  0  0  0
   36.5683   49.8879   64.3032 C   0  0  0  0  0  0  0  0  0  0  0  0
   35.2725   47.6095   65.8546 C   0  0  0  0  0  0  0  0  0  0  0  0
   38.6143   48.8658   65.0192 C   0  0  0  0  0  0  0  0  0  0  0  0
   38.5977   50.3325   63.0963 C   0  0  0  0  0  0  0  0  0  0  0  0
   35.8412   51.3431   55.9693 C   0  0  0  0  0  0  0  0  0  0  0  0
   36.7171   50.6317   57.9553 C   0  0  0  0  0  0  0  0  0  0  0  0
   37.2308   48.9730   65.1775 C   0  0  0  0  0  0  0  0  0  0  0  0
   36.4269   48.2593   66.2003 C   0  0  0  0  0  0  0  0  0  0  0  0
   36.7574   48.1784   67.5953 C   0  0  0  0  0  0  0  0  0  0  0  0
   34.4615   51.5009   58.0406 C   0  0  0  0  0  0  0  0  0  0  0  0
   37.2142   50.5018   63.2800 C   0  0  0  0  0  0  0  0  0  0  0  0
   35.5731   50.9531   58.7137 C   0  0  0  0  0  0  0  0  0  0  0  0
   34.4398   46.8691   66.6786 C   0  0  0  0  0  0  0  0  0  0  0  0
   39.2620   49.6156   64.1126 C   0  0  0  0  0  0  0  0  0  0  0  0
   37.9153   48.7268   68.1544 C   0  0  0  0  0  0  0  0  0  0  0  0
   36.5451   51.2439   60.9189 C   0  0  0  0  0  0  0  0  0  0  0  0
   33.1403   51.8014   58.6762 C   0  0  0  0  0  0  0  0  0  0  0  0
   39.8765   49.9999   67.9476 C   0  0  0  0  0  0  0  0  0  0  0  0
   36.3552   51.4984   62.4107 C   0  0  0  0  0  0  0  0  0  0  0  0
   40.9938   49.5384   64.2522 Cl  0  0  0  0  0  0  0  0  0  0  0  0
   33.2784   46.3246   66.2598 F   0  0  0  0  0  0  0  0  0  0  0  0
   36.0405   47.5515   69.5227 H   0  0  0  0  0  0  0  0  0  0  0  0
   33.9853   46.4180   68.6487 H   0  0  0  0  0  0  0  0  0  0  0  0
   33.9362   52.2723   56.0971 H   0  0  0  0  0  0  0  0  0  0  0  0
   35.4976   50.0214   64.3658 H   0  0  0  0  0  0  0  0  0  0  0  0
   34.9755   47.7445   64.8125 H   0  0  0  0  0  0  0  0  0  0  0  0
   39.2079   48.1891   65.6169 H   0  0  0  0  0  0  0  0  0  0  0  0
   39.1179   50.9139   62.3461 H   0  0  0  0  0  0  0  0  0  0  0  0
   35.8680   51.4937   54.9012 H   0  0  0  0  0  0  0  0  0  0  0  0
   37.4572   50.0531   58.4904 H   0  0  0  0  0  0  0  0  0  0  0  0
   33.2875   52.3211   59.6247 H   0  0  0  0  0  0  0  0  0  0  0  0
   32.6013   52.3611   57.9112 H   0  0  0  0  0  0  0  0  0  0  0  0
   32.5510   50.8837   58.7747 H   0  0  0  0  0  0  0  0  0  0  0  0
   40.2556   50.9290   67.5171 H   0  0  0  0  0  0  0  0  0  0  0  0
   40.1787   49.9759   69.0017 H   0  0  0  0  0  0  0  0  0  0  0  0
   40.4582   49.1903   67.5015 H   0  0  0  0  0  0  0  0  0  0  0  0
   35.3128   51.4507   62.7635 H   0  0  0  0  0  0  0  0  0  0  0  0
   36.6702   52.5014   62.7186 H   0  0  0  0  0  0  0  0  0  0  0  0
   34.6195   50.5572   60.4889 H   0  0  0  0  0  0  0  0  0  0  0  0
  1  4  1  0  0  0  0
  1 17  1  0  0  0  0
  1 30  1  0  0  0  0
  4 21  1  0  0  0  0
  4 31  1  0  0  0  0
  5 47  1  0  0  0  0
  7 13  1  0  0  0  0
  7 18  1  0  0  0  0
  7 32  1  0  0  0  0
  9 15  1  0  0  0  0
  9 19  1  0  0  0  0
  9 33  1  0  0  0  0
 10 16  1  0  0  0  0
 10 21  1  0  0  0  0
 10 34  1  0  0  0  0
 11 15  1  0  0  0  0
 11 22  1  0  0  0  0
 11 35  1  0  0  0  0
 12 19  1  0  0  0  0
 12 22  1  0  0  0  0
 12 36  1  0  0  0  0
  2 13  1  0  0  0  0
 13 37  1  0  0  0  0
  2 14  1  0  0  0  0
 14 20  1  0  0  0  0
 14 38  1  0  0  0  0
 15 16  1  0  0  0  0
 16 17  1  0  0  0  0
 17 23  1  0  0  0  0
 18 20  1  0  0  0  0
 18 25  1  0  0  0  0
 19 27  1  0  0  0  0
  5 20  1  0  0  0  0
 21 29  1  0  0  0  0
 22 28  1  0  0  0  0
  3 23  1  0  0  0  0
  8 23  1  0  0  0  0
  5 24  1  0  0  0  0
  6 24  1  0  0  0  0
 24 27  1  0  0  0  0
 25 39  1  0  0  0  0
 25 40  1  0  0  0  0
 25 41  1  0  0  0  0
  8 26  1  0  0  0  0
 26 42  1  0  0  0  0
 26 43  1  0  0  0  0
 26 44  1  0  0  0  0
 27 45  1  0  0  0  0
 27 46  1  0  0  0  0
M  END
>  <pdb_header>
REMARK   1 CREATED WITH MDTraj 1.9.4, 2020-08-14
CRYST1   96.956   96.956   96.956  90.00  90.00  90.00 P 1           1 


$$$$
EN300-6489774-neutral-boronic_esterbackwards
  PyMOL2.3          3D                             0

 48 51  0  0  0  0  0  0  0  0999 V2000
   34.5555   51.9536   57.1489 C   0  0  0  0  0  0  0  0  0  0  0  0
   36.7598   51.0812   56.7826 N   0  0  0  0  0  0  0  0  0  0  0  0
   37.6807   51.6520   60.6554 O   0  0  0  0  0  0  0  0  0  0  0  0
   38.4077   51.7305   63.8356 C   0  0  0  0  0  0  0  0  0  0  0  0
   35.7875   50.6035   60.3503 N   0  0  0  0  0  0  0  0  0  0  0  0
   39.5194   49.7406   63.2126 C   0  0  0  0  0  0  0  0  0  0  0  0
   40.6952   51.3819   64.6258 C   0  0  0  0  0  0  0  0  0  0  0  0
   35.6558   51.7511   56.3639 C   0  0  0  0  0  0  0  0  0  0  0  0
   36.7628   50.6595   58.0632 C   0  0  0  0  0  0  0  0  0  0  0  0
   34.5966   51.6799   58.5292 C   0  0  0  0  0  0  0  0  0  0  0  0
   38.3618   50.5294   63.1806 C   0  0  0  0  0  0  0  0  0  0  0  0
   39.5565   52.1708   64.5782 C   0  0  0  0  0  0  0  0  0  0  0  0
   35.7309   50.9733   58.9908 C   0  0  0  0  0  0  0  0  0  0  0  0
   40.7026   50.2111   63.8753 C   0  0  0  0  0  0  0  0  0  0  0  0
   36.8467   50.8663   61.1300 C   0  0  0  0  0  0  0  0  0  0  0  0
   40.9861   57.8927   63.9751 C   0  0  0  0  0  0  0  0  0  0  0  0
   39.4713   57.8208   63.9361 C   0  0  0  0  0  0  0  0  0  0  0  0
   40.3953   56.0320   65.5849 C   0  0  0  0  0  0  0  0  0  0  0  0
   40.3297   55.2745   63.5842 C   0  0  0  0  0  0  0  0  0  0  0  0
   40.5564   54.5672   64.9221 C   0  0  0  0  0  0  0  0  0  0  0  0
   40.3022   56.5903   64.2795 C   0  0  0  0  0  0  0  0  0  0  0  0
   33.4810   52.0278   59.4774 C   0  0  0  0  0  0  0  0  0  0  0  0
   37.1337   50.0363   62.4113 C   0  0  0  0  0  0  0  0  0  0  0  0
   39.5430   53.4983   65.3552 C   0  0  0  0  0  0  0  0  0  0  0  0
   42.0176   49.1686   63.7682 Cl  0  0  0  0  0  0  0  0  0  0  0  0
   33.6628   52.4596   56.7932 H   0  0  0  0  0  0  0  0  0  0  0  0
   37.5445   52.3833   63.8714 H   0  0  0  0  0  0  0  0  0  0  0  0
   39.5050   48.7688   62.7339 H   0  0  0  0  0  0  0  0  0  0  0  0
   41.6398   51.6560   65.0856 H   0  0  0  0  0  0  0  0  0  0  0  0
   35.7056   52.1394   55.3534 H   0  0  0  0  0  0  0  0  0  0  0  0
   37.6601   50.1371   58.3923 H   0  0  0  0  0  0  0  0  0  0  0  0
   41.5530   58.0866   63.0588 H   0  0  0  0  0  0  0  0  0  0  0  0
   41.3625   58.3976   64.8647 H   0  0  0  0  0  0  0  0  0  0  0  0
   38.7429   57.4644   63.2046 H   0  0  0  0  0  0  0  0  0  0  0  0
   39.3557   58.2945   62.9565 H   0  0  0  0  0  0  0  0  0  0  0  0
   39.4670   56.1006   66.1598 H   0  0  0  0  0  0  0  0  0  0  0  0
   41.2242   56.5238   66.1119 H   0  0  0  0  0  0  0  0  0  0  0  0
   41.2067   55.1319   62.9332 H   0  0  0  0  0  0  0  0  0  0  0  0
   39.4009   54.9912   63.0728 H   0  0  0  0  0  0  0  0  0  0  0  0
   41.5761   54.2011   65.0866 H   0  0  0  0  0  0  0  0  0  0  0  0
   33.8632   52.8097   60.1453 H   0  0  0  0  0  0  0  0  0  0  0  0
   32.6748   52.5152   58.9306 H   0  0  0  0  0  0  0  0  0  0  0  0
   33.0944   51.2196   60.1048 H   0  0  0  0  0  0  0  0  0  0  0  0
   37.0392   48.9643   62.2202 H   0  0  0  0  0  0  0  0  0  0  0  0
   36.3049   50.2321   63.0832 H   0  0  0  0  0  0  0  0  0  0  0  0
   38.5135   53.8873   65.3851 H   0  0  0  0  0  0  0  0  0  0  0  0
   39.8343   53.3328   66.3979 H   0  0  0  0  0  0  0  0  0  0  0  0
   35.0647   49.9670   60.6853 H   0  0  0  0  0  0  0  0  0  0  0  0
  1  8  1  0  0  0  0
  1 10  1  0  0  0  0
  1 26  1  0  0  0  0
  4 11  1  0  0  0  0
  4 12  1  0  0  0  0
  4 27  1  0  0  0  0
  5 48  1  0  0  0  0
  6 11  1  0  0  0  0
  6 14  1  0  0  0  0
  6 28  1  0  0  0  0
  7 12  1  0  0  0  0
  7 14  1  0  0  0  0
  7 29  1  0  0  0  0
  2  8  1  0  0  0  0
  8 30  1  0  0  0  0
  2  9  1  0  0  0  0
  9 13  1  0  0  0  0
  9 31  1  0  0  0  0
 10 13  1  0  0  0  0
 10 22  1  0  0  0  0
 11 23  1  0  0  0  0
 12 24  1  0  0  0  0
  5 13  1  0  0  0  0
 14 25  1  0  0  0  0
  3 15  1  0  0  0  0
  5 15  1  0  0  0  0
 15 23  1  0  0  0  0
 16 17  1  0  0  0  0
 16 21  1  0  0  0  0
 16 32  1  0  0  0  0
 16 33  1  0  0  0  0
 17 21  1  0  0  0  0
 17 34  1  0  0  0  0
 17 35  1  0  0  0  0
 18 20  1  0  0  0  0
 18 21  1  0  0  0  0
 18 36  1  0  0  0  0
 18 37  1  0  0  0  0
 19 20  1  0  0  0  0
 19 21  1  0  0  0  0
 19 38  1  0  0  0  0
 19 39  1  0  0  0  0
 20 24  1  0  0  0  0
 20 40  1  0  0  0  0
 22 41  1  0  0  0  0
 22 42  1  0  0  0  0
 22 43  1  0  0  0  0
 23 44  1  0  0  0  0
 23 45  1  0  0  0  0
 24 46  1  0  0  0  0
 24 47  1  0  0  0  0
M  END
>  <pdb_header>
REMARK   1 CREATED WITH MDTraj 1.9.4, 2020-08-14
CRYST1   96.878   96.878   96.878  90.00  90.00  90.00 P 1           1 


$$$$
EN300-148395-neutral-boronic_esterbackwards
  PyMOL2.3          3D                             0

 41 43  0  0  0  0  0  0  0  0999 V2000
   42.2356   55.5315   64.3471 C   0  0  0  0  0  0  0  0  0  0  0  0
   36.8274   50.5186   57.1705 N   0  0  0  0  0  0  0  0  0  0  0  0
   38.1620   52.2211   60.7852 O   0  0  0  0  0  0  0  0  0  0  0  0
   40.2143   56.5833   63.0400 S   0  0  0  0  0  0  0  0  0  0  0  0
   42.5573   56.9529   64.1145 C   0  0  0  0  0  0  0  0  0  0  0  0
   36.0195   51.5579   60.6832 N   0  0  0  0  0  0  0  0  0  0  0  0
   34.6425   51.3918   57.3752 C   0  0  0  0  0  0  0  0  0  0  0  0
   39.0692   53.6098   63.4553 C   0  0  0  0  0  0  0  0  0  0  0  0
   41.1148   52.6192   63.9934 C   0  0  0  0  0  0  0  0  0  0  0  0
   39.2976   51.1631   63.5714 C   0  0  0  0  0  0  0  0  0  0  0  0
   35.6370   50.8574   56.6354 C   0  0  0  0  0  0  0  0  0  0  0  0
   37.0213   50.9422   58.4558 C   0  0  0  0  0  0  0  0  0  0  0  0
   40.3972   53.7894   63.7035 C   0  0  0  0  0  0  0  0  0  0  0  0
   34.6759   51.5104   58.7572 C   0  0  0  0  0  0  0  0  0  0  0  0
   38.5087   52.3241   63.3739 C   0  0  0  0  0  0  0  0  0  0  0  0
   35.9632   51.4626   59.2674 C   0  0  0  0  0  0  0  0  0  0  0  0
   40.6447   51.3134   63.9170 C   0  0  0  0  0  0  0  0  0  0  0  0
   41.0521   55.1593   63.7969 C   0  0  0  0  0  0  0  0  0  0  0  0
   41.5921   57.6421   63.4139 C   0  0  0  0  0  0  0  0  0  0  0  0
   37.1260   51.9300   61.3655 C   0  0  0  0  0  0  0  0  0  0  0  0
   33.4489   51.9574   59.5110 C   0  0  0  0  0  0  0  0  0  0  0  0
   37.1460   52.2390   62.9534 C   0  0  0  0  0  0  0  0  0  0  0  0
   41.5682   59.1046   63.0342 C   0  0  0  0  0  0  0  0  0  0  0  0
   41.6658   50.0009   64.2679 Cl  0  0  0  0  0  0  0  0  0  0  0  0
   40.5871   59.7400   63.6774 F   0  0  0  0  0  0  0  0  0  0  0  0
   42.7159   59.6379   63.4797 F   0  0  0  0  0  0  0  0  0  0  0  0
   41.4094   59.1038   61.6701 F   0  0  0  0  0  0  0  0  0  0  0  0
   42.8894   54.8224   64.8592 H   0  0  0  0  0  0  0  0  0  0  0  0
   43.4702   57.4406   64.4412 H   0  0  0  0  0  0  0  0  0  0  0  0
   33.7793   51.8164   56.8676 H   0  0  0  0  0  0  0  0  0  0  0  0
   38.4257   54.4915   63.3876 H   0  0  0  0  0  0  0  0  0  0  0  0
   42.1749   52.7967   64.1784 H   0  0  0  0  0  0  0  0  0  0  0  0
   38.8998   50.1602   63.5218 H   0  0  0  0  0  0  0  0  0  0  0  0
   35.5636   50.6875   55.5684 H   0  0  0  0  0  0  0  0  0  0  0  0
   38.0008   50.8838   58.9091 H   0  0  0  0  0  0  0  0  0  0  0  0
   33.5825   52.9541   59.9309 H   0  0  0  0  0  0  0  0  0  0  0  0
   32.5957   52.0019   58.8203 H   0  0  0  0  0  0  0  0  0  0  0  0
   33.2261   51.2372   60.3063 H   0  0  0  0  0  0  0  0  0  0  0  0
   36.4954   51.5454   63.4902 H   0  0  0  0  0  0  0  0  0  0  0  0
   36.6403   53.1863   63.1343 H   0  0  0  0  0  0  0  0  0  0  0  0
   35.1868   51.6557   61.2669 H   0  0  0  0  0  0  0  0  0  0  0  0
  1  5  1  0  0  0  0
  1 18  1  0  0  0  0
  1 28  1  0  0  0  0
  5 19  1  0  0  0  0
  5 29  1  0  0  0  0
  6 41  1  0  0  0  0
  7 11  1  0  0  0  0
  7 14  1  0  0  0  0
  7 30  1  0  0  0  0
  8 13  1  0  0  0  0
  8 15  1  0  0  0  0
  8 31  1  0  0  0  0
  9 13  1  0  0  0  0
  9 17  1  0  0  0  0
  9 32  1  0  0  0  0
 10 15  1  0  0  0  0
 10 17  1  0  0  0  0
 10 33  1  0  0  0  0
  2 11  1  0  0  0  0
 11 34  1  0  0  0  0
  2 12  1  0  0  0  0
 12 16  1  0  0  0  0
 12 35  1  0  0  0  0
 13 18  1  0  0  0  0
 14 16  1  0  0  0  0
 14 21  1  0  0  0  0
 15 22  1  0  0  0  0
  6 16  1  0  0  0  0
 17 24  1  0  0  0  0
  4 18  1  0  0  0  0
  4 19  1  0  0  0  0
 19 23  1  0  0  0  0
  3 20  1  0  0  0  0
  6 20  1  0  0  0  0
 20 22  1  0  0  0  0
 21 36  1  0  0  0  0
 21 37  1  0  0  0  0
 21 38  1  0  0  0  0
 22 39  1  0  0  0  0
 22 40  1  0  0  0  0
 23 25  1  0  0  0  0
 23 26  1  0  0  0  0
 23 27  1  0  0  0  0
M  END
>  <pdb_header>
REMARK   1 CREATED WITH MDTraj 1.9.4, 2020-08-14
CRYST1   96.820   96.820   96.820  90.00  90.00  90.00 P 1           1 


$$$$
EN300-359542-neutral-boronic_esterbackwards
  PyMOL2.3          3D                             0

 43 45  0  0  0  0  0  0  0  0999 V2000
   35.1376   50.7621   57.4984 C   0  0  0  0  0  0  0  0  0  0  0  0
   37.2654   49.5737   57.8144 N   0  0  0  0  0  0  0  0  0  0  0  0
   35.6774   48.5214   61.8824 O   0  0  0  0  0  0  0  0  0  0  0  0
   37.8124   52.0872   63.8530 C   0  0  0  0  0  0  0  0  0  0  0  0
   41.2235   55.7696   64.2728 N   0  0  0  0  0  0  0  0  0  0  0  0
   38.5450   55.0590   63.8751 C   0  0  0  0  0  0  0  0  0  0  0  0
   35.7416   50.6308   61.0666 N   0  0  0  0  0  0  0  0  0  0  0  0
   40.2104   51.5756   63.6727 C   0  0  0  0  0  0  0  0  0  0  0  0
   38.5668   49.8644   63.3805 C   0  0  0  0  0  0  0  0  0  0  0  0
   36.2815   50.0828   57.0614 C   0  0  0  0  0  0  0  0  0  0  0  0
   40.8265   54.4497   64.3050 C   0  0  0  0  0  0  0  0  0  0  0  0
   37.1156   49.8066   59.1558 C   0  0  0  0  0  0  0  0  0  0  0  0
   39.1774   52.5556   63.8494 C   0  0  0  0  0  0  0  0  0  0  0  0
   39.5059   53.9896   64.0743 C   0  0  0  0  0  0  0  0  0  0  0  0
   34.9630   50.9572   58.8585 C   0  0  0  0  0  0  0  0  0  0  0  0
   37.4923   50.7287   63.5995 C   0  0  0  0  0  0  0  0  0  0  0  0
   39.0147   56.4666   63.7429 C   0  0  0  0  0  0  0  0  0  0  0  0
   35.9440   50.4357   59.7006 C   0  0  0  0  0  0  0  0  0  0  0  0
   39.8972   50.2499   63.4520 C   0  0  0  0  0  0  0  0  0  0  0  0
   40.3573   56.7285   64.0086 C   0  0  0  0  0  0  0  0  0  0  0  0
   35.7775   49.7103   62.1202 C   0  0  0  0  0  0  0  0  0  0  0  0
   33.6544   51.5866   59.3710 C   0  0  0  0  0  0  0  0  0  0  0  0
   36.1203   50.1735   63.5359 C   0  0  0  0  0  0  0  0  0  0  0  0
   38.0531   57.5994   63.5749 C   0  0  0  0  0  0  0  0  0  0  0  0
   41.2089   49.1029   63.1914 Cl  0  0  0  0  0  0  0  0  0  0  0  0
   40.7903   58.0276   63.9074 F   0  0  0  0  0  0  0  0  0  0  0  0
   38.2973   58.1720   62.3407 F   0  0  0  0  0  0  0  0  0  0  0  0
   36.6992   57.2732   63.8699 F   0  0  0  0  0  0  0  0  0  0  0  0
   38.2054   58.4680   64.6039 F   0  0  0  0  0  0  0  0  0  0  0  0
   34.5979   51.1678   56.6576 H   0  0  0  0  0  0  0  0  0  0  0  0
   37.0034   52.7866   64.0284 H   0  0  0  0  0  0  0  0  0  0  0  0
   37.5032   54.7868   63.7330 H   0  0  0  0  0  0  0  0  0  0  0  0
   41.2453   51.8997   63.7825 H   0  0  0  0  0  0  0  0  0  0  0  0
   38.4891   48.8937   62.9076 H   0  0  0  0  0  0  0  0  0  0  0  0
   36.5123   50.1524   56.0009 H   0  0  0  0  0  0  0  0  0  0  0  0
   41.5849   53.6919   64.4364 H   0  0  0  0  0  0  0  0  0  0  0  0
   37.9480   49.3764   59.7062 H   0  0  0  0  0  0  0  0  0  0  0  0
   32.8424   51.3552   58.6762 H   0  0  0  0  0  0  0  0  0  0  0  0
   33.4172   51.0582   60.2973 H   0  0  0  0  0  0  0  0  0  0  0  0
   33.6707   52.6653   59.5203 H   0  0  0  0  0  0  0  0  0  0  0  0
   36.1425   49.2720   64.1495 H   0  0  0  0  0  0  0  0  0  0  0  0
   35.3798   50.8980   63.8639 H   0  0  0  0  0  0  0  0  0  0  0  0
   35.6589   51.5643   61.4643 H   0  0  0  0  0  0  0  0  0  0  0  0
  1 10  1  0  0  0  0
  1 15  1  0  0  0  0
  1 30  1  0  0  0  0
  4 13  1  0  0  0  0
  4 16  1  0  0  0  0
  4 31  1  0  0  0  0
  6 14  1  0  0  0  0
  6 17  1  0  0  0  0
  6 32  1  0  0  0  0
  7 43  1  0  0  0  0
  8 13  1  0  0  0  0
  8 19  1  0  0  0  0
  8 33  1  0  0  0  0
  9 16  1  0  0  0  0
  9 19  1  0  0  0  0
  9 34  1  0  0  0  0
  2 10  1  0  0  0  0
 10 35  1  0  0  0  0
  5 11  1  0  0  0  0
 11 14  1  0  0  0  0
 11 36  1  0  0  0  0
  2 12  1  0  0  0  0
 12 18  1  0  0  0  0
 12 37  1  0  0  0  0
 13 14  1  0  0  0  0
 15 18  1  0  0  0  0
 15 22  1  0  0  0  0
 16 23  1  0  0  0  0
 17 20  1  0  0  0  0
 17 24  1  0  0  0  0
  7 18  1  0  0  0  0
 19 25  1  0  0  0  0
  5 20  1  0  0  0  0
 20 26  1  0  0  0  0
  3 21  1  0  0  0  0
  7 21  1  0  0  0  0
 21 23  1  0  0  0  0
 22 38  1  0  0  0  0
 22 39  1  0  0  0  0
 22 40  1  0  0  0  0
 23 41  1  0  0  0  0
 23 42  1  0  0  0  0
 24 27  1  0  0  0  0
 24 28  1  0  0  0  0
 24 29  1  0  0  0  0
M  END
>  <pdb_header>
REMARK   1 CREATED WITH MDTraj 1.9.4, 2020-08-14
CRYST1   96.886   96.886   96.886  90.00  90.00  90.00 P 1           1 


$$$$
EN300-246322-neutral-boronic_esterbackwards
  PyMOL2.3          3D                             0

 71 73  0  0  0  0  0  0  0  0999 V2000
   34.8445   52.4525   56.0434 C   0  0  0  0  0  0  0  0  0  0  0  0
   37.0124   51.3849   56.2180 N   0  0  0  0  0  0  0  0  0  0  0  0
   37.5037   52.7313   59.9571 O   0  0  0  0  0  0  0  0  0  0  0  0
   37.6555   53.9920   62.8170 C   0  0  0  0  0  0  0  0  0  0  0  0
   37.7523   58.0931   63.9443 N   0  0  0  0  0  0  0  0  0  0  0  0
   37.3971   59.0506   67.5236 O   0  0  0  0  0  0  0  0  0  0  0  0
   39.6928   53.7016   64.0553 C   0  0  0  0  0  0  0  0  0  0  0  0
   39.1363   57.5845   65.8082 N   0  0  0  0  0  0  0  0  0  0  0  0
   39.3050   60.9743   64.0637 O   0  0  0  0  0  0  0  0  0  0  0  0
   38.6038   51.7685   63.0789 C   0  0  0  0  0  0  0  0  0  0  0  0
   35.4584   51.8254   59.5907 N   0  0  0  0  0  0  0  0  0  0  0  0
   38.5835   61.0404   67.3729 O   0  0  0  0  0  0  0  0  0  0  0  0
   36.0078   51.9084   55.5131 C   0  0  0  0  0  0  0  0  0  0  0  0
   38.1896   59.7261   65.5604 N   0  0  0  0  0  0  0  0  0  0  0  0
   37.2169   61.7278   64.7870 O   0  0  0  0  0  0  0  0  0  0  0  0
   38.0230   56.9461   63.3648 C   0  0  0  0  0  0  0  0  0  0  0  0
   39.1747   56.3252   65.3460 C   0  0  0  0  0  0  0  0  0  0  0  0
   36.8026   51.3179   57.5526 C   0  0  0  0  0  0  0  0  0  0  0  0
   38.6914   54.5946   63.7218 C   0  0  0  0  0  0  0  0  0  0  0  0
   38.7150   55.9848   64.0579 C   0  0  0  0  0  0  0  0  0  0  0  0
   34.6500   52.4187   57.4342 C   0  0  0  0  0  0  0  0  0  0  0  0
   37.5962   52.6350   62.6063 C   0  0  0  0  0  0  0  0  0  0  0  0
   35.6185   51.8085   58.1787 C   0  0  0  0  0  0  0  0  0  0  0  0
   39.7151   52.3200   63.7141 C   0  0  0  0  0  0  0  0  0  0  0  0
   38.4252   58.4681   65.0489 C   0  0  0  0  0  0  0  0  0  0  0  0
   36.5092   52.1935   60.3951 C   0  0  0  0  0  0  0  0  0  0  0  0
   38.0546   59.8727   66.8854 C   0  0  0  0  0  0  0  0  0  0  0  0
   38.2349   60.8094   64.7379 C   0  0  0  0  0  0  0  0  0  0  0  0
   33.3990   53.0794   57.9978 C   0  0  0  0  0  0  0  0  0  0  0  0
   38.3900   63.2096   68.5871 C   0  0  0  0  0  0  0  0  0  0  0  0
   36.3073   61.8334   68.5298 C   0  0  0  0  0  0  0  0  0  0  0  0
   38.2562   60.9235   69.8413 C   0  0  0  0  0  0  0  0  0  0  0  0
   38.2979   63.8183   64.3674 C   0  0  0  0  0  0  0  0  0  0  0  0
   36.8937   62.5430   62.5198 C   0  0  0  0  0  0  0  0  0  0  0  0
   35.8838   63.6625   64.4859 C   0  0  0  0  0  0  0  0  0  0  0  0
   36.3544   52.1149   61.8904 C   0  0  0  0  0  0  0  0  0  0  0  0
   37.9007   61.7075   68.5440 C   0  0  0  0  0  0  0  0  0  0  0  0
   37.1611   62.8736   63.9837 C   0  0  0  0  0  0  0  0  0  0  0  0
   41.0034   51.2346   64.2268 Cl  0  0  0  0  0  0  0  0  0  0  0  0
   34.1785   52.9611   55.3579 H   0  0  0  0  0  0  0  0  0  0  0  0
   36.8450   54.6871   62.6335 H   0  0  0  0  0  0  0  0  0  0  0  0
   40.5531   54.1205   64.5652 H   0  0  0  0  0  0  0  0  0  0  0  0
   38.6057   50.6887   62.9600 H   0  0  0  0  0  0  0  0  0  0  0  0
   36.1372   51.9189   54.4402 H   0  0  0  0  0  0  0  0  0  0  0  0
   37.5212   56.6752   62.4419 H   0  0  0  0  0  0  0  0  0  0  0  0
   39.7514   55.6023   65.9103 H   0  0  0  0  0  0  0  0  0  0  0  0
   37.6155   50.9305   58.1531 H   0  0  0  0  0  0  0  0  0  0  0  0
   32.9519   53.6463   57.1807 H   0  0  0  0  0  0  0  0  0  0  0  0
   32.7785   52.2265   58.2902 H   0  0  0  0  0  0  0  0  0  0  0  0
   33.6060   53.7176   58.8644 H   0  0  0  0  0  0  0  0  0  0  0  0
   38.0755   63.7819   67.7164 H   0  0  0  0  0  0  0  0  0  0  0  0
   38.0641   63.6978   69.5118 H   0  0  0  0  0  0  0  0  0  0  0  0
   39.4730   63.2886   68.6891 H   0  0  0  0  0  0  0  0  0  0  0  0
   35.9428   62.4101   67.6684 H   0  0  0  0  0  0  0  0  0  0  0  0
   36.0378   62.3432   69.4674 H   0  0  0  0  0  0  0  0  0  0  0  0
   35.8040   60.8630   68.5821 H   0  0  0  0  0  0  0  0  0  0  0  0
   37.7999   59.9373   69.9169 H   0  0  0  0  0  0  0  0  0  0  0  0
   39.3408   60.8037   69.9589 H   0  0  0  0  0  0  0  0  0  0  0  0
   37.9665   61.4984   70.7264 H   0  0  0  0  0  0  0  0  0  0  0  0
   38.0033   64.8359   64.6528 H   0  0  0  0  0  0  0  0  0  0  0  0
   38.8825   63.9618   63.4507 H   0  0  0  0  0  0  0  0  0  0  0  0
   38.9228   63.3802   65.1541 H   0  0  0  0  0  0  0  0  0  0  0  0
   36.5086   63.4516   62.0265 H   0  0  0  0  0  0  0  0  0  0  0  0
   36.3024   61.6276   62.4606 H   0  0  0  0  0  0  0  0  0  0  0  0
   37.8863   62.3692   62.0933 H   0  0  0  0  0  0  0  0  0  0  0  0
   34.9869   63.0417   64.3683 H   0  0  0  0  0  0  0  0  0  0  0  0
   36.0368   63.9969   65.5164 H   0  0  0  0  0  0  0  0  0  0  0  0
   35.7183   64.6042   63.9629 H   0  0  0  0  0  0  0  0  0  0  0  0
   36.0025   51.1414   62.2198 H   0  0  0  0  0  0  0  0  0  0  0  0
   35.6699   52.9407   62.0969 H   0  0  0  0  0  0  0  0  0  0  0  0
   34.5325   51.5629   59.9666 H   0  0  0  0  0  0  0  0  0  0  0  0
  1 13  1  0  0  0  0
  1 21  1  0  0  0  0
  1 40  1  0  0  0  0
  4 19  1  0  0  0  0
  4 22  1  0  0  0  0
  4 41  1  0  0  0  0
  7 19  1  0  0  0  0
  7 24  1  0  0  0  0
  7 42  1  0  0  0  0
 10 22  1  0  0  0  0
 10 24  1  0  0  0  0
 10 43  1  0  0  0  0
 11 71  1  0  0  0  0
  2 13  1  0  0  0  0
 13 44  1  0  0  0  0
  5 16  1  0  0  0  0
 16 20  1  0  0  0  0
 16 45  1  0  0  0  0
  8 17  1  0  0  0  0
 17 20  1  0  0  0  0
 17 46  1  0  0  0  0
  2 18  1  0  0  0  0
 18 23  1  0  0  0  0
 18 47  1  0  0  0  0
 19 20  1  0  0  0  0
 21 23  1  0  0  0  0
 21 29  1  0  0  0  0
 22 36  1  0  0  0  0
 11 23  1  0  0  0  0
 24 39  1  0  0  0  0
  5 25  1  0  0  0  0
  8 25  1  0  0  0  0
 14 25  1  0  0  0  0
  3 26  1  0  0  0  0
 11 26  1  0  0  0  0
 26 36  1  0  0  0  0
  6 27  1  0  0  0  0
 12 27  1  0  0  0  0
 14 27  1  0  0  0  0
  9 28  1  0  0  0  0
 14 28  1  0  0  0  0
 15 28  1  0  0  0  0
 29 48  1  0  0  0  0
 29 49  1  0  0  0  0
 29 50  1  0  0  0  0
 30 37  1  0  0  0  0
 30 51  1  0  0  0  0
 30 52  1  0  0  0  0
 30 53  1  0  0  0  0
 31 37  1  0  0  0  0
 31 54  1  0  0  0  0
 31 55  1  0  0  0  0
 31 56  1  0  0  0  0
 32 37  1  0  0  0  0
 32 57  1  0  0  0  0
 32 58  1  0  0  0  0
 32 59  1  0  0  0  0
 33 38  1  0  0  0  0
 33 60  1  0  0  0  0
 33 61  1  0  0  0  0
 33 62  1  0  0  0  0
 34 38  1  0  0  0  0
 34 63  1  0  0  0  0
 34 64  1  0  0  0  0
 34 65  1  0  0  0  0
 35 38  1  0  0  0  0
 35 66  1  0  0  0  0
 35 67  1  0  0  0  0
 35 68  1  0  0  0  0
 36 69  1  0  0  0  0
 36 70  1  0  0  0  0
 12 37  1  0  0  0  0
 15 38  1  0  0  0  0
M  END
>  <pdb_header>
REMARK   1 CREATED WITH MDTraj 1.9.4, 2020-08-14
CRYST1   96.799   96.799   96.799  90.00  90.00  90.00 P 1           1 


$$$$
EN300-363413-neutral-boronic_esterbackwards
  PyMOL2.3          3D                             0

 40 42  0  0  0  0  0  0  0  0999 V2000
   35.1058   53.5995   54.7666 C   0  0  0  0  0  0  0  0  0  0  0  0
   36.9738   52.1347   55.1224 N   0  0  0  0  0  0  0  0  0  0  0  0
   37.6892   53.2679   59.0002 O   0  0  0  0  0  0  0  0  0  0  0  0
   37.4458   54.4663   62.1486 C   0  0  0  0  0  0  0  0  0  0  0  0
   38.7999   58.8060   64.8519 N   0  0  0  0  0  0  0  0  0  0  0  0
   39.6489   53.9777   63.1482 C   0  0  0  0  0  0  0  0  0  0  0  0
   35.5531   53.2554   58.3782 N   0  0  0  0  0  0  0  0  0  0  0  0
   38.4157   52.1993   62.0395 C   0  0  0  0  0  0  0  0  0  0  0  0
   36.1536   52.8213   54.3576 C   0  0  0  0  0  0  0  0  0  0  0  0
   36.7037   52.2592   56.4600 C   0  0  0  0  0  0  0  0  0  0  0  0
   37.6970   58.0392   64.9486 C   0  0  0  0  0  0  0  0  0  0  0  0
   39.8011   58.4172   64.1192 C   0  0  0  0  0  0  0  0  0  0  0  0
   38.6185   54.9307   62.8970 C   0  0  0  0  0  0  0  0  0  0  0  0
   38.6559   56.2924   63.5427 C   0  0  0  0  0  0  0  0  0  0  0  0
   34.8366   53.6712   56.1187 C   0  0  0  0  0  0  0  0  0  0  0  0
   37.4232   53.1556   61.6809 C   0  0  0  0  0  0  0  0  0  0  0  0
   35.6861   53.0366   57.0229 C   0  0  0  0  0  0  0  0  0  0  0  0
   37.6136   56.7621   64.3656 C   0  0  0  0  0  0  0  0  0  0  0  0
   39.5145   52.6319   62.7387 C   0  0  0  0  0  0  0  0  0  0  0  0
   39.7796   57.1637   63.3839 C   0  0  0  0  0  0  0  0  0  0  0  0
   36.5178   53.1246   59.3440 C   0  0  0  0  0  0  0  0  0  0  0  0
   33.6309   54.4959   56.5759 C   0  0  0  0  0  0  0  0  0  0  0  0
   36.2804   52.8120   60.7914 C   0  0  0  0  0  0  0  0  0  0  0  0
   40.7543   51.4229   63.0930 Cl  0  0  0  0  0  0  0  0  0  0  0  0
   41.3447   56.6604   62.3859 Br  0  0  0  0  0  0  0  0  0  0  0  0
   36.5655   55.9767   64.6458 F   0  0  0  0  0  0  0  0  0  0  0  0
   34.4866   54.2331   54.1408 H   0  0  0  0  0  0  0  0  0  0  0  0
   36.6340   55.1501   61.9104 H   0  0  0  0  0  0  0  0  0  0  0  0
   40.4829   54.2112   63.7944 H   0  0  0  0  0  0  0  0  0  0  0  0
   38.2981   51.1718   61.6913 H   0  0  0  0  0  0  0  0  0  0  0  0
   36.5174   53.0244   53.3514 H   0  0  0  0  0  0  0  0  0  0  0  0
   37.3654   51.7431   57.1593 H   0  0  0  0  0  0  0  0  0  0  0  0
   36.8561   58.4776   65.4862 H   0  0  0  0  0  0  0  0  0  0  0  0
   40.6423   59.1045   64.1008 H   0  0  0  0  0  0  0  0  0  0  0  0
   33.8859   54.9548   57.5339 H   0  0  0  0  0  0  0  0  0  0  0  0
   33.4629   55.3251   55.8760 H   0  0  0  0  0  0  0  0  0  0  0  0
   32.7747   53.8367   56.7527 H   0  0  0  0  0  0  0  0  0  0  0  0
   36.1569   51.7190   60.8046 H   0  0  0  0  0  0  0  0  0  0  0  0
   35.3431   53.2583   61.1297 H   0  0  0  0  0  0  0  0  0  0  0  0
   34.5862   53.2177   58.7006 H   0  0  0  0  0  0  0  0  0  0  0  0
  1  9  1  0  0  0  0
  1 15  1  0  0  0  0
  1 27  1  0  0  0  0
  4 13  1  0  0  0  0
  4 16  1  0  0  0  0
  4 28  1  0  0  0  0
  6 13  1  0  0  0  0
  6 19  1  0  0  0  0
  6 29  1  0  0  0  0
  7 40  1  0  0  0  0
  8 16  1  0  0  0  0
  8 19  1  0  0  0  0
  8 30  1  0  0  0  0
  2  9  1  0  0  0  0
  9 31  1  0  0  0  0
  2 10  1  0  0  0  0
 10 17  1  0  0  0  0
 10 32  1  0  0  0  0
  5 11  1  0  0  0  0
 11 18  1  0  0  0  0
 11 33  1  0  0  0  0
  5 12  1  0  0  0  0
 12 20  1  0  0  0  0
 12 34  1  0  0  0  0
 13 14  1  0  0  0  0
 14 18  1  0  0  0  0
 14 20  1  0  0  0  0
 15 17  1  0  0  0  0
 15 22  1  0  0  0  0
 16 23  1  0  0  0  0
  7 17  1  0  0  0  0
 18 26  1  0  0  0  0
 19 24  1  0  0  0  0
 20 25  1  0  0  0  0
  3 21  1  0  0  0  0
  7 21  1  0  0  0  0
 21 23  1  0  0  0  0
 22 35  1  0  0  0  0
 22 36  1  0  0  0  0
 22 37  1  0  0  0  0
 23 38  1  0  0  0  0
 23 39  1  0  0  0  0
M  END
>  <pdb_header>
REMARK   1 CREATED WITH MDTraj 1.9.4, 2020-08-14
CRYST1   96.920   96.920   96.920  90.00  90.00  90.00 P 1           1 


$$$$
EN300-122703-neutral-boronic_esterbackwards
  PyMOL2.3          3D                             0

 41 43  0  0  0  0  0  0  0  0999 V2000
   40.8997   55.7432   63.7221 C   0  0  0  0  0  0  0  0  0  0  0  0
   36.1096   50.4422   56.9946 N   0  0  0  0  0  0  0  0  0  0  0  0
   37.1653   51.8464   60.6234 O   0  0  0  0  0  0  0  0  0  0  0  0
   40.8573   57.1472   63.7913 C   0  0  0  0  0  0  0  0  0  0  0  0
   34.9831   51.3863   60.4550 N   0  0  0  0  0  0  0  0  0  0  0  0
   38.8652   56.4703   64.1118 O   0  0  0  0  0  0  0  0  0  0  0  0
   33.9557   51.5121   56.8915 C   0  0  0  0  0  0  0  0  0  0  0  0
   37.8603   53.6413   63.2089 C   0  0  0  0  0  0  0  0  0  0  0  0
   39.8361   52.8915   64.1482 C   0  0  0  0  0  0  0  0  0  0  0  0
   38.0837   51.3124   63.8115 C   0  0  0  0  0  0  0  0  0  0  0  0
   35.0961   50.9288   56.3011 C   0  0  0  0  0  0  0  0  0  0  0  0
   36.1154   50.6694   58.3175 C   0  0  0  0  0  0  0  0  0  0  0  0
   39.0924   53.9165   63.7185 C   0  0  0  0  0  0  0  0  0  0  0  0
   33.9013   51.7520   58.2770 C   0  0  0  0  0  0  0  0  0  0  0  0
   37.3084   52.3680   63.2302 C   0  0  0  0  0  0  0  0  0  0  0  0
   35.0143   51.3808   59.0172 C   0  0  0  0  0  0  0  0  0  0  0  0
   39.3777   51.5670   64.2123 C   0  0  0  0  0  0  0  0  0  0  0  0
   39.5833   55.3296   63.8244 C   0  0  0  0  0  0  0  0  0  0  0  0
   39.6368   57.5341   64.0423 C   0  0  0  0  0  0  0  0  0  0  0  0
   36.1053   51.7594   61.1858 C   0  0  0  0  0  0  0  0  0  0  0  0
   32.7046   52.3555   58.9354 C   0  0  0  0  0  0  0  0  0  0  0  0
   39.0620   58.9299   64.2978 C   0  0  0  0  0  0  0  0  0  0  0  0
   35.9768   52.1226   62.6748 C   0  0  0  0  0  0  0  0  0  0  0  0
   40.4291   50.2816   64.6776 Cl  0  0  0  0  0  0  0  0  0  0  0  0
   41.6887   54.9889   63.6433 H   0  0  0  0  0  0  0  0  0  0  0  0
   41.6640   57.8252   63.5302 H   0  0  0  0  0  0  0  0  0  0  0  0
   33.1549   51.8966   56.2652 H   0  0  0  0  0  0  0  0  0  0  0  0
   37.3426   54.4999   62.7779 H   0  0  0  0  0  0  0  0  0  0  0  0
   40.8335   53.1738   64.4784 H   0  0  0  0  0  0  0  0  0  0  0  0
   37.8094   50.2624   63.8245 H   0  0  0  0  0  0  0  0  0  0  0  0
   35.0780   50.9102   55.2166 H   0  0  0  0  0  0  0  0  0  0  0  0
   36.9493   50.1976   58.8000 H   0  0  0  0  0  0  0  0  0  0  0  0
   32.4831   51.8996   59.9064 H   0  0  0  0  0  0  0  0  0  0  0  0
   32.8037   53.4323   59.0473 H   0  0  0  0  0  0  0  0  0  0  0  0
   31.8317   52.1845   58.3028 H   0  0  0  0  0  0  0  0  0  0  0  0
   39.9134   59.5794   64.0823 H   0  0  0  0  0  0  0  0  0  0  0  0
   38.2063   59.2385   63.6867 H   0  0  0  0  0  0  0  0  0  0  0  0
   38.7664   58.9650   65.3584 H   0  0  0  0  0  0  0  0  0  0  0  0
   35.5130   51.3320   63.2807 H   0  0  0  0  0  0  0  0  0  0  0  0
   35.3337   53.0113   62.7403 H   0  0  0  0  0  0  0  0  0  0  0  0
   34.1383   51.4316   61.0138 H   0  0  0  0  0  0  0  0  0  0  0  0
  1  4  1  0  0  0  0
  1 18  1  0  0  0  0
  1 25  1  0  0  0  0
  4 19  1  0  0  0  0
  4 26  1  0  0  0  0
  5 41  1  0  0  0  0
  7 11  1  0  0  0  0
  7 14  1  0  0  0  0
  7 27  1  0  0  0  0
  8 13  1  0  0  0  0
  8 15  1  0  0  0  0
  8 28  1  0  0  0  0
  9 13  1  0  0  0  0
  9 17  1  0  0  0  0
  9 29  1  0  0  0  0
 10 15  1  0  0  0  0
 10 17  1  0  0  0  0
 10 30  1  0  0  0  0
  2 11  1  0  0  0  0
 11 31  1  0  0  0  0
  2 12  1  0  0  0  0
 12 16  1  0  0  0  0
 12 32  1  0  0  0  0
 13 18  1  0  0  0  0
 14 16  1  0  0  0  0
 14 21  1  0  0  0  0
 15 23  1  0  0  0  0
  5 16  1  0  0  0  0
 17 24  1  0  0  0  0
  6 18  1  0  0  0  0
  6 19  1  0  0  0  0
 19 22  1  0  0  0  0
  3 20  1  0  0  0  0
  5 20  1  0  0  0  0
 20 23  1  0  0  0  0
 21 33  1  0  0  0  0
 21 34  1  0  0  0  0
 21 35  1  0  0  0  0
 22 36  1  0  0  0  0
 22 37  1  0  0  0  0
 22 38  1  0  0  0  0
 23 39  1  0  0  0  0
 23 40  1  0  0  0  0
M  END
>  <pdb_header>
REMARK   1 CREATED WITH MDTraj 1.9.4, 2020-08-14
CRYST1   96.862   96.862   96.862  90.00  90.00  90.00 P 1           1 


$$$$
EN300-172191-neutral-boronic_esterbackwards
  PyMOL2.3          3D                             0

 41 43  0  0  0  0  0  0  0  0999 V2000
   34.3430   52.2450   55.2830 C   0  0  0  0  0  0  0  0  0  0  0  0
   36.6230   51.5050   55.4530 N   0  0  0  0  0  0  0  0  0  0  0  0
   37.5430   52.7850   59.2230 O   0  0  0  0  0  0  0  0  0  0  0  0
   37.9630   53.6450   62.5430 C   0  0  0  0  0  0  0  0  0  0  0  0
   39.7830   57.0350   64.3730 N   0  0  0  0  0  0  0  0  0  0  0  0
   39.8130   52.4450   63.3430 C   0  0  0  0  0  0  0  0  0  0  0  0
   39.4430   56.1850   63.4230 N   0  0  0  0  0  0  0  0  0  0  0  0
   38.1830   51.2650   62.0230 C   0  0  0  0  0  0  0  0  0  0  0  0
   35.3030   52.4350   58.8030 N   0  0  0  0  0  0  0  0  0  0  0  0
   35.5030   51.7950   54.7230 C   0  0  0  0  0  0  0  0  0  0  0  0
   36.4930   51.6750   56.7430 C   0  0  0  0  0  0  0  0  0  0  0  0
   39.9530   56.3550   65.4530 C   0  0  0  0  0  0  0  0  0  0  0  0
   39.1030   53.6950   63.2030 C   0  0  0  0  0  0  0  0  0  0  0  0
   34.2130   52.3950   56.6630 C   0  0  0  0  0  0  0  0  0  0  0  0
   37.4830   52.4950   61.9530 C   0  0  0  0  0  0  0  0  0  0  0  0
   35.3530   52.1950   57.4130 C   0  0  0  0  0  0  0  0  0  0  0  0
   39.3230   51.2550   62.8230 C   0  0  0  0  0  0  0  0  0  0  0  0
   39.7830   54.9650   65.2030 C   0  0  0  0  0  0  0  0  0  0  0  0
   39.4930   54.8850   63.9230 C   0  0  0  0  0  0  0  0  0  0  0  0
   36.4430   52.6050   59.6830 C   0  0  0  0  0  0  0  0  0  0  0  0
   32.9330   52.9350   57.2730 C   0  0  0  0  0  0  0  0  0  0  0  0
   39.0430   56.6350   62.0830 C   0  0  0  0  0  0  0  0  0  0  0  0
   36.2230   52.5350   61.2030 C   0  0  0  0  0  0  0  0  0  0  0  0
   40.0930   49.6850   63.0330 Cl  0  0  0  0  0  0  0  0  0  0  0  0
   39.7630   53.6150   66.2530 Cl  0  0  0  0  0  0  0  0  0  0  0  0
   33.6230   52.5350   54.5130 H   0  0  0  0  0  0  0  0  0  0  0  0
   37.4430   54.5850   62.4030 H   0  0  0  0  0  0  0  0  0  0  0  0
   40.7930   52.4350   63.8230 H   0  0  0  0  0  0  0  0  0  0  0  0
   38.0230   50.3650   61.4430 H   0  0  0  0  0  0  0  0  0  0  0  0
   35.5630   51.7950   53.6430 H   0  0  0  0  0  0  0  0  0  0  0  0
   37.3930   51.3550   57.2530 H   0  0  0  0  0  0  0  0  0  0  0  0
   40.0930   56.8250   66.4230 H   0  0  0  0  0  0  0  0  0  0  0  0
   32.7430   52.4850   58.2530 H   0  0  0  0  0  0  0  0  0  0  0  0
   32.9330   54.0250   57.4030 H   0  0  0  0  0  0  0  0  0  0  0  0
   32.0830   52.6950   56.6230 H   0  0  0  0  0  0  0  0  0  0  0  0
   39.5430   57.5550   61.7830 H   0  0  0  0  0  0  0  0  0  0  0  0
   37.9530   56.7050   62.0030 H   0  0  0  0  0  0  0  0  0  0  0  0
   39.3130   55.8750   61.3430 H   0  0  0  0  0  0  0  0  0  0  0  0
   35.5430   51.7350   61.5130 H   0  0  0  0  0  0  0  0  0  0  0  0
   35.5430   53.3650   61.4330 H   0  0  0  0  0  0  0  0  0  0  0  0
   34.3730   52.6750   59.1330 H   0  0  0  0  0  0  0  0  0  0  0  0
  1 10  1  0  0  0  0
  1 14  1  0  0  0  0
  1 26  1  0  0  0  0
  4 13  1  0  0  0  0
  4 15  1  0  0  0  0
  4 27  1  0  0  0  0
  5  7  1  0  0  0  0
  6 13  1  0  0  0  0
  6 17  1  0  0  0  0
  6 28  1  0  0  0  0
  8 15  1  0  0  0  0
  8 17  1  0  0  0  0
  8 29  1  0  0  0  0
  9 41  1  0  0  0  0
  2 10  1  0  0  0  0
 10 30  1  0  0  0  0
  2 11  1  0  0  0  0
 11 16  1  0  0  0  0
 11 31  1  0  0  0  0
  5 12  1  0  0  0  0
 12 18  1  0  0  0  0
 12 32  1  0  0  0  0
 13 19  1  0  0  0  0
 14 16  1  0  0  0  0
 14 21  1  0  0  0  0
 15 23  1  0  0  0  0
  9 16  1  0  0  0  0
 17 24  1  0  0  0  0
 18 19  1  0  0  0  0
 18 25  1  0  0  0  0
  7 19  1  0  0  0  0
  3 20  1  0  0  0  0
  9 20  1  0  0  0  0
 20 23  1  0  0  0  0
 21 33  1  0  0  0  0
 21 34  1  0  0  0  0
 21 35  1  0  0  0  0
  7 22  1  0  0  0  0
 22 36  1  0  0  0  0
 22 37  1  0  0  0  0
 22 38  1  0  0  0  0
 23 39  1  0  0  0  0
 23 40  1  0  0  0  0
M  END
>  <pdb_header>
REMARK   1 CREATED WITH MDTraj 1.9.4, 2020-08-14
CRYST1   96.922   96.922   96.922  90.00  90.00  90.00 P 1           1 


$$$$
