ADA-UNI-f8e79267-5
  -OEChem-07042000473D

 40 41  0     1  0  0  0  0  0999 V2000
   13.6393   -2.2339   22.8608 C   0  0  0  0  0  0  0  0  0  0  0  0
   12.3157   -2.5695   23.1453 C   0  0  0  0  0  0  0  0  0  0  0  0
   13.9682   -0.9220   22.5192 C   0  0  0  0  0  0  0  0  0  0  0  0
    5.5319    0.6952   19.2198 C   0  0  0  0  0  0  0  0  0  0  0  0
   11.3209   -1.5935   23.0881 C   0  0  0  0  0  0  0  0  0  0  0  0
   12.9734    0.0541   22.4620 C   0  0  0  0  0  0  0  0  0  0  0  0
    6.3750    0.7505   20.3241 C   0  0  0  0  0  0  0  0  0  0  0  0
    6.0881    0.3623   17.9952 C   0  0  0  0  0  0  0  0  0  0  0  0
    8.1872    0.1519   18.9050 C   0  0  0  0  0  0  0  0  0  0  0  0
   11.6497   -0.2816   22.7465 C   0  0  0  0  0  0  0  0  0  0  0  0
    7.7294    0.4751   20.1722 C   0  0  0  0  0  0  0  0  0  0  0  0
    9.9672    0.8458   21.2690 C   0  0  0  0  0  0  0  0  0  0  0  0
    8.0516    4.4710   22.5801 C   0  0  0  0  0  0  0  0  0  0  0  0
   11.0750    2.1739   23.1241 C   0  0  0  0  0  0  0  0  0  0  0  0
    9.9886    3.1830   23.4900 C   0  0  0  0  0  0  0  0  0  0  0  0
   10.5665    0.7821   22.6837 C   0  0  2  0  0  0  0  0  0  0  0  0
    7.3987    0.0883   17.8087 N   0  0  0  0  0  0  0  0  0  0  0  0
    8.6120    0.5236   21.2771 N   0  0  0  0  0  0  0  0  0  0  0  0
    9.0939    3.4354   22.3368 N   0  3  0  0  0  0  0  0  0  0  0  0
   10.6515    1.1378   20.2923 O   0  0  0  0  0  0  0  0  0  0  0  0
   14.4140   -2.9937   22.9068 H   0  0  0  0  0  0  0  0  0  0  0  0
   12.0596   -3.5907   23.4124 H   0  0  0  0  0  0  0  0  0  0  0  0
   14.9987   -0.6601   22.2988 H   0  0  0  0  0  0  0  0  0  0  0  0
    4.4728    0.9060   19.3148 H   0  0  0  0  0  0  0  0  0  0  0  0
   10.2922   -1.8642   23.3112 H   0  0  0  0  0  0  0  0  0  0  0  0
   13.2389    1.0735   22.1948 H   0  0  0  0  0  0  0  0  0  0  0  0
    5.9665    1.0090   21.2975 H   0  0  0  0  0  0  0  0  0  0  0  0
    5.4730    0.3066   17.1031 H   0  0  0  0  0  0  0  0  0  0  0  0
    9.2339   -0.0733   18.7234 H   0  0  0  0  0  0  0  0  0  0  0  0
    8.5586    5.3937   22.8684 H   0  0  0  0  0  0  0  0  0  0  0  0
    7.4904    4.6044   21.6534 H   0  0  0  0  0  0  0  0  0  0  0  0
    7.4045    4.1117   23.3826 H   0  0  0  0  0  0  0  0  0  0  0  0
   11.7471    2.0747   23.9864 H   0  0  0  0  0  0  0  0  0  0  0  0
   11.6902    2.5954   22.3174 H   0  0  0  0  0  0  0  0  0  0  0  0
    9.3598    2.8470   24.3190 H   0  0  0  0  0  0  0  0  0  0  0  0
   10.4344    4.1473   23.7525 H   0  0  0  0  0  0  0  0  0  0  0  0
    9.7414    0.5017   23.3523 H   0  0  0  0  0  0  0  0  0  0  0  0
    8.2096    0.2964   22.1839 H   0  0  0  0  0  0  0  0  0  0  0  0
    8.6314    2.5555   22.0630 H   0  0  0  0  0  0  0  0  0  0  0  0
    9.6577    3.7160   21.5204 H   0  0  0  0  0  0  0  0  0  0  0  0
  1  2  1  0  0  0  0
  1  3  2  0  0  0  0
  2  5  2  0  0  0  0
  3  6  1  0  0  0  0
  4  7  2  0  0  0  0
  4  8  1  0  0  0  0
  5 10  1  0  0  0  0
  6 10  2  0  0  0  0
  7 11  1  0  0  0  0
  8 17  2  0  0  0  0
  9 11  2  0  0  0  0
  9 17  1  0  0  0  0
 10 16  1  0  0  0  0
 11 18  1  0  0  0  0
 12 16  1  0  0  0  0
 12 18  1  0  0  0  0
 12 20  2  0  0  0  0
 13 19  1  0  0  0  0
 14 15  1  0  0  0  0
 14 16  1  0  0  0  0
 15 19  1  0  0  0  0
  1 21  1  0  0  0  0
  2 22  1  0  0  0  0
  3 23  1  0  0  0  0
  4 24  1  0  0  0  0
  5 25  1  0  0  0  0
  6 26  1  0  0  0  0
  7 27  1  0  0  0  0
  8 28  1  0  0  0  0
  9 29  1  0  0  0  0
 13 30  1  0  0  0  0
 13 31  1  0  0  0  0
 13 32  1  0  0  0  0
 14 33  1  0  0  0  0
 14 34  1  0  0  0  0
 15 35  1  0  0  0  0
 15 36  1  0  0  0  0
 16 37  1  0  0  0  0
 18 38  1  0  0  0  0
 19 39  1  0  0  0  0
 19 40  1  0  0  0  0
M  CHG  1  19   1
M  END
> <series>
3-aminopyridine-like

> <r_inhibition_at_20_uM>

> <r_inhibition_at_50_uM>
2.1940968935

> <r_IC50>

> <f_inhibition_at_20_uM>
-5.69205

> <f_inhibition_at_50_uM>
1.5463741000000002

> <f_avg_IC50>

> <f_avg_pIC50>

> <ASSAYED>
True

> <Hybrid2>
-12.515671

> <docked_fragment>
x0678

> <Mpro-_dock>
-7.48096

> <site>
active-noncovalent

$$$$
TRY-UNI-714a760b-16
  -OEChem-07042000473D

 40 41  0     1  0  0  0  0  0999 V2000
    5.6580    0.9093   18.9186 C   0  0  0  0  0  0  0  0  0  0  0  0
    6.2802    0.7486   17.6910 C   0  0  0  0  0  0  0  0  0  0  0  0
    8.2235    0.0137   18.6717 C   0  0  0  0  0  0  0  0  0  0  0  0
    6.3844    0.5971   20.0623 C   0  0  0  0  0  0  0  0  0  0  0  0
    7.6924    0.1401   19.9452 C   0  0  0  0  0  0  0  0  0  0  0  0
    9.8549   -0.1016   21.2144 C   0  0  0  0  0  0  0  0  0  0  0  0
   14.4162   -1.5828   23.6772 C   0  0  0  0  0  0  0  0  0  0  0  0
   13.7617   -0.3944   24.3745 C   0  0  0  0  0  0  0  0  0  0  0  0
   14.0106   -1.6647   22.2088 C   0  0  0  0  0  0  0  0  0  0  0  0
   12.2433   -0.4128   24.2133 C   0  0  0  0  0  0  0  0  0  0  0  0
   12.4927   -1.6851   22.0438 C   0  0  0  0  0  0  0  0  0  0  0  0
   11.8313   -0.4861   22.7368 C   0  0  0  0  0  0  0  0  0  0  0  0
    5.7384    0.7615   21.3988 C   0  0  0  0  0  0  0  0  0  0  0  0
    9.6428    0.2946   23.6811 C   0  0  0  0  0  0  0  0  0  0  0  0
   10.3112   -0.5574   22.6038 C   0  0  1  0  0  0  0  0  0  0  0  0
    7.5488    0.3073   17.5376 N   0  0  0  0  0  0  0  0  0  0  0  0
    8.4724   -0.1910   21.0789 N   0  0  0  0  0  0  0  0  0  0  0  0
   10.6565    0.2903   20.3711 O   0  0  0  0  0  0  0  0  0  0  0  0
    4.6360    1.2682   18.9755 H   0  0  0  0  0  0  0  0  0  0  0  0
    5.7568    0.9785   16.7688 H   0  0  0  0  0  0  0  0  0  0  0  0
    9.2389   -0.3384   18.5153 H   0  0  0  0  0  0  0  0  0  0  0  0
   15.5063   -1.5011   23.7545 H   0  0  0  0  0  0  0  0  0  0  0  0
   14.1267   -2.5096   24.1875 H   0  0  0  0  0  0  0  0  0  0  0  0
   14.0197   -0.4051   25.4397 H   0  0  0  0  0  0  0  0  0  0  0  0
   14.1612    0.5388   23.9587 H   0  0  0  0  0  0  0  0  0  0  0  0
   14.4248   -0.8055   21.6669 H   0  0  0  0  0  0  0  0  0  0  0  0
   14.4429   -2.5650   21.7575 H   0  0  0  0  0  0  0  0  0  0  0  0
   11.8339   -1.2731   24.7584 H   0  0  0  0  0  0  0  0  0  0  0  0
   11.8194    0.4865   24.6760 H   0  0  0  0  0  0  0  0  0  0  0  0
   12.2449   -1.6836   20.9756 H   0  0  0  0  0  0  0  0  0  0  0  0
   12.0980   -2.6211   22.4597 H   0  0  0  0  0  0  0  0  0  0  0  0
   12.1708    0.4313   22.2375 H   0  0  0  0  0  0  0  0  0  0  0  0
    5.2313   -0.1649   21.6921 H   0  0  0  0  0  0  0  0  0  0  0  0
    6.4784    1.0138   22.1683 H   0  0  0  0  0  0  0  0  0  0  0  0
    5.0018    1.5744   21.3855 H   0  0  0  0  0  0  0  0  0  0  0  0
    9.9252    1.3475   23.5774 H   0  0  0  0  0  0  0  0  0  0  0  0
    9.9334   -0.0310   24.6854 H   0  0  0  0  0  0  0  0  0  0  0  0
    8.5511    0.2254   23.6180 H   0  0  0  0  0  0  0  0  0  0  0  0
   10.0080   -1.6037   22.7361 H   0  0  0  0  0  0  0  0  0  0  0  0
    7.9628   -0.5346   21.8900 H   0  0  0  0  0  0  0  0  0  0  0  0
  1  2  2  0  0  0  0
  1  4  1  0  0  0  0
  2 16  1  0  0  0  0
  3  5  1  0  0  0  0
  3 16  2  0  0  0  0
  4  5  2  0  0  0  0
  4 13  1  0  0  0  0
  5 17  1  0  0  0  0
  6 15  1  0  0  0  0
  6 17  1  0  0  0  0
  6 18  2  0  0  0  0
  7  8  1  0  0  0  0
  7  9  1  0  0  0  0
  8 10  1  0  0  0  0
  9 11  1  0  0  0  0
 10 12  1  0  0  0  0
 11 12  1  0  0  0  0
 12 15  1  0  0  0  0
 14 15  1  0  0  0  0
  1 19  1  0  0  0  0
  2 20  1  0  0  0  0
  3 21  1  0  0  0  0
  7 22  1  0  0  0  0
  7 23  1  0  0  0  0
  8 24  1  0  0  0  0
  8 25  1  0  0  0  0
  9 26  1  0  0  0  0
  9 27  1  0  0  0  0
 10 28  1  0  0  0  0
 10 29  1  0  0  0  0
 11 30  1  0  0  0  0
 11 31  1  0  0  0  0
 12 32  1  0  0  0  0
 13 33  1  0  0  0  0
 13 34  1  0  0  0  0
 13 35  1  0  0  0  0
 14 36  1  0  0  0  0
 14 37  1  0  0  0  0
 14 38  1  0  0  0  0
 15 39  1  0  0  0  0
 17 40  1  0  0  0  0
M  END
> <series>
3-aminopyridine-like

> <r_inhibition_at_20_uM>

> <r_inhibition_at_50_uM>
0.0

> <r_IC50>

> <f_inhibition_at_20_uM>
9.2934345

> <f_inhibition_at_50_uM>
18.376635

> <f_avg_IC50>

> <f_avg_pIC50>

> <ASSAYED>
True

> <Hybrid2>
-12.283777

> <docked_fragment>
x0678

> <Mpro-_dock>
-7.061202

> <site>
active-noncovalent

$$$$
EDJ-MED-e58735b6-2
  -OEChem-07042000473D

 35 36  0     0  0  0  0  0  0999 V2000
   13.6551   -1.8019   21.5985 C   0  0  0  0  0  0  0  0  0  0  0  0
   12.5617   -0.9364   21.6292 C   0  0  0  0  0  0  0  0  0  0  0  0
   14.3258   -2.1205   22.7793 C   0  0  0  0  0  0  0  0  0  0  0  0
    5.8791    0.6833   19.5077 C   0  0  0  0  0  0  0  0  0  0  0  0
   12.8098   -0.7079   24.0216 C   0  0  0  0  0  0  0  0  0  0  0  0
    6.4376    0.5833   18.2436 C   0  0  0  0  0  0  0  0  0  0  0  0
    8.5583    0.3660   19.1002 C   0  0  0  0  0  0  0  0  0  0  0  0
   12.1391   -0.3893   22.8407 C   0  0  0  0  0  0  0  0  0  0  0  0
   13.9032   -1.5735   23.9909 C   0  0  0  0  0  0  0  0  0  0  0  0
    6.7325    0.6176   20.6034 C   0  0  0  0  0  0  0  0  0  0  0  0
    8.0991    0.4561   20.4044 C   0  0  0  0  0  0  0  0  0  0  0  0
   10.3408    0.7871   21.5046 C   0  0  0  0  0  0  0  0  0  0  0  0
    6.1573    0.7233   21.9777 C   0  0  0  0  0  0  0  0  0  0  0  0
   10.9690    0.5349   22.8729 C   0  0  0  0  0  0  0  0  0  0  0  0
   14.6209   -1.9137   25.2534 C   0  0  0  0  0  0  0  0  0  0  0  0
    7.7600    0.4257   18.0108 N   0  0  0  0  0  0  0  0  0  0  0  0
    9.0081    0.3833   21.4867 N   0  0  0  0  0  0  0  0  0  0  0  0
   10.9794    1.2823   20.5816 O   0  0  0  0  0  0  0  0  0  0  0  0
   15.9808   -1.5111   25.1467 O   0  0  0  0  0  0  0  0  0  0  0  0
   13.9841   -2.2279   20.6551 H   0  0  0  0  0  0  0  0  0  0  0  0
   12.0450   -0.6943   20.7041 H   0  0  0  0  0  0  0  0  0  0  0  0
   15.1772   -2.7952   22.7459 H   0  0  0  0  0  0  0  0  0  0  0  0
    4.8085    0.8091   19.6287 H   0  0  0  0  0  0  0  0  0  0  0  0
   12.4802   -0.2825   24.9665 H   0  0  0  0  0  0  0  0  0  0  0  0
    5.8150    0.6288   17.3562 H   0  0  0  0  0  0  0  0  0  0  0  0
    9.6142    0.2389   18.8804 H   0  0  0  0  0  0  0  0  0  0  0  0
    5.8943   -0.2710   22.3568 H   0  0  0  0  0  0  0  0  0  0  0  0
    6.8708    1.1847   22.6715 H   0  0  0  0  0  0  0  0  0  0  0  0
    5.2564    1.3493   21.9831 H   0  0  0  0  0  0  0  0  0  0  0  0
   10.1855    0.1381   23.5394 H   0  0  0  0  0  0  0  0  0  0  0  0
   11.2630    1.5083   23.2989 H   0  0  0  0  0  0  0  0  0  0  0  0
   14.1717   -1.4072   26.1186 H   0  0  0  0  0  0  0  0  0  0  0  0
   14.5868   -2.9939   25.4502 H   0  0  0  0  0  0  0  0  0  0  0  0
    8.6457   -0.0101   22.3527 H   0  0  0  0  0  0  0  0  0  0  0  0
   16.4090   -1.7495   25.9845 H   0  0  0  0  0  0  0  0  0  0  0  0
  1  2  2  0  0  0  0
  1  3  1  0  0  0  0
  2  8  1  0  0  0  0
  3  9  2  0  0  0  0
  4  6  2  0  0  0  0
  4 10  1  0  0  0  0
  5  8  2  0  0  0  0
  5  9  1  0  0  0  0
  6 16  1  0  0  0  0
  7 11  1  0  0  0  0
  7 16  2  0  0  0  0
  8 14  1  0  0  0  0
  9 15  1  0  0  0  0
 10 11  2  0  0  0  0
 10 13  1  0  0  0  0
 11 17  1  0  0  0  0
 12 14  1  0  0  0  0
 12 17  1  0  0  0  0
 12 18  2  0  0  0  0
 15 19  1  0  0  0  0
  1 20  1  0  0  0  0
  2 21  1  0  0  0  0
  3 22  1  0  0  0  0
  4 23  1  0  0  0  0
  5 24  1  0  0  0  0
  6 25  1  0  0  0  0
  7 26  1  0  0  0  0
 13 27  1  0  0  0  0
 13 28  1  0  0  0  0
 13 29  1  0  0  0  0
 14 30  1  0  0  0  0
 14 31  1  0  0  0  0
 15 32  1  0  0  0  0
 15 33  1  0  0  0  0
 17 34  1  0  0  0  0
 19 35  1  0  0  0  0
M  END
> <series>
3-aminopyridine-like

> <r_inhibition_at_20_uM>

> <r_inhibition_at_50_uM>
1.13630184

> <r_IC50>

> <f_inhibition_at_20_uM>
2.86527195

> <f_inhibition_at_50_uM>
6.0491525

> <f_avg_IC50>

> <f_avg_pIC50>

> <ASSAYED>
True

> <Hybrid2>
-12.058949

> <docked_fragment>
x0678

> <Mpro-_dock>
-6.585942

> <site>
active-noncovalent

$$$$
MAT-POS-590ac91e-23
  -OEChem-07042000473D

 35 37  0     1  0  0  0  0  0999 V2000
    5.5928    0.8858   19.3501 C   0  0  0  0  0  0  0  0  0  0  0  0
    6.1204    0.5463   18.1147 C   0  0  0  0  0  0  0  0  0  0  0  0
    8.2191    0.2359   18.9964 C   0  0  0  0  0  0  0  0  0  0  0  0
    6.4501    0.8909   20.4448 C   0  0  0  0  0  0  0  0  0  0  0  0
    7.7899    0.5610   20.2731 C   0  0  0  0  0  0  0  0  0  0  0  0
   10.0681    0.8131   21.3163 C   0  0  0  0  0  0  0  0  0  0  0  0
   14.0599   -2.1745   22.9142 C   0  0  0  0  0  0  0  0  0  0  0  0
   12.6552   -0.4110   21.5541 C   0  0  0  0  0  0  0  0  0  0  0  0
   12.6844   -0.2006   23.9842 C   0  0  0  0  0  0  0  0  0  0  0  0
   13.9674   -0.9375   22.0600 C   0  0  1  0  0  0  0  0  0  0  0  0
   13.9852   -0.8089   23.5451 C   0  0  2  0  0  0  0  0  0  0  0  0
   11.7298   -0.3853   22.7874 C   0  0  0  0  0  0  0  0  0  0  0  0
    5.9081    1.2537   21.7884 C   0  0  0  0  0  0  0  0  0  0  0  0
   10.6626    0.6932   22.7067 C   0  0  0  0  0  0  0  0  0  0  0  0
    7.4161    0.2200   17.9089 N   0  0  0  0  0  0  0  0  0  0  0  0
    8.7015    0.5515   21.3555 N   0  0  0  0  0  0  0  0  0  0  0  0
   10.7439    1.1026   20.3345 O   0  0  0  0  0  0  0  0  0  0  0  0
    4.5427    1.1384   19.4503 H   0  0  0  0  0  0  0  0  0  0  0  0
    5.4935    0.5274   17.2293 H   0  0  0  0  0  0  0  0  0  0  0  0
    9.2531   -0.0309   18.7987 H   0  0  0  0  0  0  0  0  0  0  0  0
   13.1970   -2.8218   22.9813 H   0  0  0  0  0  0  0  0  0  0  0  0
   15.0104   -2.6889   22.9465 H   0  0  0  0  0  0  0  0  0  0  0  0
   12.7651    0.5807   21.0973 H   0  0  0  0  0  0  0  0  0  0  0  0
   12.2501   -1.0868   20.7885 H   0  0  0  0  0  0  0  0  0  0  0  0
   12.2991   -0.7351   24.8635 H   0  0  0  0  0  0  0  0  0  0  0  0
   12.8026    0.8544   24.2621 H   0  0  0  0  0  0  0  0  0  0  0  0
   14.8347   -0.6035   21.5004 H   0  0  0  0  0  0  0  0  0  0  0  0
   14.8652   -0.3859   24.0179 H   0  0  0  0  0  0  0  0  0  0  0  0
   11.2041   -1.3696   22.8786 H   0  0  0  0  0  0  0  0  0  0  0  0
    5.5493    0.3576   22.3078 H   0  0  0  0  0  0  0  0  0  0  0  0
    6.6749    1.7338   22.4086 H   0  0  0  0  0  0  0  0  0  0  0  0
    5.0766    1.9641   21.7016 H   0  0  0  0  0  0  0  0  0  0  0  0
   11.1058    1.6510   22.9880 H   0  0  0  0  0  0  0  0  0  0  0  0
    9.8659    0.4563   23.4153 H   0  0  0  0  0  0  0  0  0  0  0  0
    8.2976    0.3258   22.2622 H   0  0  0  0  0  0  0  0  0  0  0  0
  1  2  2  0  0  0  0
  1  4  1  0  0  0  0
  2 15  1  0  0  0  0
  3  5  1  0  0  0  0
  3 15  2  0  0  0  0
  4  5  2  0  0  0  0
  4 13  1  0  0  0  0
  5 16  1  0  0  0  0
  6 14  1  0  0  0  0
  6 16  1  0  0  0  0
  6 17  2  0  0  0  0
  7 10  1  0  0  0  0
  7 11  1  0  0  0  0
  8 10  1  0  0  0  0
  8 12  1  0  0  0  0
  9 11  1  0  0  0  0
  9 12  1  0  0  0  0
 10 11  1  0  0  0  0
 12 14  1  0  0  0  0
  1 18  1  0  0  0  0
  2 19  1  0  0  0  0
  3 20  1  0  0  0  0
  7 21  1  0  0  0  0
  7 22  1  0  0  0  0
  8 23  1  0  0  0  0
  8 24  1  0  0  0  0
  9 25  1  0  0  0  0
  9 26  1  0  0  0  0
 10 27  1  0  0  0  0
 11 28  1  0  0  0  0
 12 29  1  0  0  0  0
 13 30  1  0  0  0  0
 13 31  1  0  0  0  0
 13 32  1  0  0  0  0
 14 33  1  0  0  0  0
 14 34  1  0  0  0  0
 16 35  1  0  0  0  0
M  END
> <series>
3-aminopyridine-like

> <r_inhibition_at_20_uM>

> <r_inhibition_at_50_uM>
0.0

> <r_IC50>

> <f_inhibition_at_20_uM>
11.5126585

> <f_inhibition_at_50_uM>
12.287035000000001

> <f_avg_IC50>

> <f_avg_pIC50>

> <ASSAYED>
True

> <Hybrid2>
-11.881159

> <docked_fragment>
x0678

> <Mpro-_dock>
-6.902503

> <site>
active-noncovalent

$$$$
EDJ-MED-c9f55a56-1
  -OEChem-07042000473D

 31 32  0     0  0  0  0  0  0999 V2000
    5.7080    1.0539   19.1156 C   0  0  0  0  0  0  0  0  0  0  0  0
   12.0577   -1.0019   22.9819 C   0  0  0  0  0  0  0  0  0  0  0  0
    6.4994    0.7839   18.0108 C   0  0  0  0  0  0  0  0  0  0  0  0
    8.3098    0.2588   19.3241 C   0  0  0  0  0  0  0  0  0  0  0  0
    6.2780    0.9091   20.3755 C   0  0  0  0  0  0  0  0  0  0  0  0
    7.6033    0.5045   20.4905 C   0  0  0  0  0  0  0  0  0  0  0  0
   11.2176   -0.2502   23.8250 C   0  0  0  0  0  0  0  0  0  0  0  0
   13.2049   -1.1847   23.7147 C   0  0  0  0  0  0  0  0  0  0  0  0
    9.5758    0.5126   22.0570 C   0  0  0  0  0  0  0  0  0  0  0  0
    5.4478    1.1942   21.5839 C   0  0  0  0  0  0  0  0  0  0  0  0
   14.4653   -1.8814   23.4102 C   0  0  0  0  0  0  0  0  0  0  0  0
    9.8230    0.2377   23.5320 C   0  0  0  0  0  0  0  0  0  0  0  0
    7.7902    0.3887   18.0828 N   0  0  0  0  0  0  0  0  0  0  0  0
   11.7829    0.0256   25.0033 N   0  0  0  0  0  0  0  0  0  0  0  0
   12.9905   -0.5561   24.9059 N   0  0  0  0  0  0  0  0  0  0  0  0
    8.2191    0.3447   21.7315 N   0  0  0  0  0  0  0  0  0  0  0  0
   10.4776    0.8345   21.2900 O   0  0  0  0  0  0  0  0  0  0  0  0
    4.6772    1.3680   18.9915 H   0  0  0  0  0  0  0  0  0  0  0  0
   11.8595   -1.3613   21.9823 H   0  0  0  0  0  0  0  0  0  0  0  0
    6.1021    0.8819   17.0058 H   0  0  0  0  0  0  0  0  0  0  0  0
    9.3476   -0.0601   19.3486 H   0  0  0  0  0  0  0  0  0  0  0  0
    4.9342    0.2842   21.9151 H   0  0  0  0  0  0  0  0  0  0  0  0
    6.0654    1.5675   22.4100 H   0  0  0  0  0  0  0  0  0  0  0  0
    4.6949    1.9643   21.3747 H   0  0  0  0  0  0  0  0  0  0  0  0
   15.1959   -1.2016   22.9385 H   0  0  0  0  0  0  0  0  0  0  0  0
   14.9397   -2.3016   24.3154 H   0  0  0  0  0  0  0  0  0  0  0  0
   14.3158   -2.7351   22.7247 H   0  0  0  0  0  0  0  0  0  0  0  0
    9.0927   -0.5047   23.8784 H   0  0  0  0  0  0  0  0  0  0  0  0
    9.6288    1.1566   24.0996 H   0  0  0  0  0  0  0  0  0  0  0  0
   13.6212   -0.4835   25.6947 H   0  0  0  0  0  0  0  0  0  0  0  0
    7.6030    0.0696   22.5057 H   0  0  0  0  0  0  0  0  0  0  0  0
  1  3  2  0  0  0  0
  1  5  1  0  0  0  0
  2  7  1  0  0  0  0
  2  8  2  0  0  0  0
  3 13  1  0  0  0  0
  4  6  1  0  0  0  0
  4 13  2  0  0  0  0
  5  6  2  0  0  0  0
  5 10  1  0  0  0  0
  6 16  1  0  0  0  0
  7 12  1  0  0  0  0
  7 14  2  0  0  0  0
  8 11  1  0  0  0  0
  8 15  1  0  0  0  0
  9 12  1  0  0  0  0
  9 16  1  0  0  0  0
  9 17  2  0  0  0  0
 14 15  1  0  0  0  0
  1 18  1  0  0  0  0
  2 19  1  0  0  0  0
  3 20  1  0  0  0  0
  4 21  1  0  0  0  0
 10 22  1  0  0  0  0
 10 23  1  0  0  0  0
 10 24  1  0  0  0  0
 11 25  1  0  0  0  0
 11 26  1  0  0  0  0
 11 27  1  0  0  0  0
 12 28  1  0  0  0  0
 12 29  1  0  0  0  0
 15 30  1  0  0  0  0
 16 31  1  0  0  0  0
M  END
> <series>
3-aminopyridine-like

> <r_inhibition_at_20_uM>

> <r_inhibition_at_50_uM>
4.870901033561076

> <r_IC50>

> <f_inhibition_at_20_uM>
-4.283793

> <f_inhibition_at_50_uM>
0.40377305

> <f_avg_IC50>

> <f_avg_pIC50>

> <ASSAYED>
True

> <Hybrid2>
-11.828817

> <docked_fragment>
x0678

> <Mpro-_dock>
-6.59767

> <site>
active-noncovalent

$$$$
BAR-COM-0f94fc3d-46
  -OEChem-07042000473D

 37 38  0     1  0  0  0  0  0999 V2000
   11.3068   -0.1753   24.0420 C   0  0  0  0  0  0  0  0  0  0  0  0
   12.6212   -0.0207   24.4825 C   0  0  0  0  0  0  0  0  0  0  0  0
    5.5683    1.4226   19.0535 C   0  0  0  0  0  0  0  0  0  0  0  0
   11.9913   -2.0266   22.6488 C   0  0  0  0  0  0  0  0  0  0  0  0
    6.1017    1.2061   17.7932 C   0  0  0  0  0  0  0  0  0  0  0  0
   10.9918   -1.1783   23.1252 C   0  0  0  0  0  0  0  0  0  0  0  0
    6.1881    0.8095   20.1367 C   0  0  0  0  0  0  0  0  0  0  0  0
    7.3066    0.0100   19.9294 C   0  0  0  0  0  0  0  0  0  0  0  0
   13.6207   -0.8691   24.0061 C   0  0  0  0  0  0  0  0  0  0  0  0
   13.3057   -1.8721   23.0893 C   0  0  0  0  0  0  0  0  0  0  0  0
    7.7621   -0.1435   18.6299 C   0  0  0  0  0  0  0  0  0  0  0  0
    9.2771   -0.4632   21.4263 C   0  0  0  0  0  0  0  0  0  0  0  0
    5.6321    1.0273   21.5059 C   0  0  0  0  0  0  0  0  0  0  0  0
    8.9598   -0.9895   18.3410 C   0  0  0  0  0  0  0  0  0  0  0  0
    9.2503   -2.8185   22.3550 C   0  0  0  0  0  0  0  0  0  0  0  0
    9.5866   -1.3449   22.6543 C   0  0  1  0  0  0  0  0  0  0  0  0
    7.1866    0.4361   17.5526 N   0  0  0  0  0  0  0  0  0  0  0  0
    7.9569   -0.6260   21.0134 N   0  0  0  0  0  0  0  0  0  0  0  0
   10.1193    0.2836   20.9361 O   0  0  0  0  0  0  0  0  0  0  0  0
   14.8828   -0.7197   24.4286 F   0  0  0  0  0  0  0  0  0  0  0  0
   14.2650   -2.6876   22.6327 F   0  0  0  0  0  0  0  0  0  0  0  0
   10.5345    0.4904   24.4183 H   0  0  0  0  0  0  0  0  0  0  0  0
   12.8670    0.7598   25.1965 H   0  0  0  0  0  0  0  0  0  0  0  0
    4.6940    2.0520   19.1809 H   0  0  0  0  0  0  0  0  0  0  0  0
   11.7556   -2.8119   21.9355 H   0  0  0  0  0  0  0  0  0  0  0  0
    5.6550    1.6610   16.9152 H   0  0  0  0  0  0  0  0  0  0  0  0
    4.8825    0.2619   21.7374 H   0  0  0  0  0  0  0  0  0  0  0  0
    6.4221    0.9844   22.2656 H   0  0  0  0  0  0  0  0  0  0  0  0
    5.1615    2.0147   21.5898 H   0  0  0  0  0  0  0  0  0  0  0  0
    8.6554   -2.0249   18.1515 H   0  0  0  0  0  0  0  0  0  0  0  0
    9.5039   -0.6182   17.4643 H   0  0  0  0  0  0  0  0  0  0  0  0
    9.6632   -0.9792   19.1823 H   0  0  0  0  0  0  0  0  0  0  0  0
    9.9083   -3.2312   21.5821 H   0  0  0  0  0  0  0  0  0  0  0  0
    9.3584   -3.4484   23.2452 H   0  0  0  0  0  0  0  0  0  0  0  0
    8.2165   -2.9116   22.0043 H   0  0  0  0  0  0  0  0  0  0  0  0
    8.8716   -1.0288   23.4397 H   0  0  0  0  0  0  0  0  0  0  0  0
    7.3789   -1.2725   21.5460 H   0  0  0  0  0  0  0  0  0  0  0  0
  1  2  2  0  0  0  0
  1  6  1  0  0  0  0
  2  9  1  0  0  0  0
  3  5  2  0  0  0  0
  3  7  1  0  0  0  0
  4  6  2  0  0  0  0
  4 10  1  0  0  0  0
  5 17  1  0  0  0  0
  6 16  1  0  0  0  0
  7  8  2  0  0  0  0
  7 13  1  0  0  0  0
  8 11  1  0  0  0  0
  8 18  1  0  0  0  0
  9 10  2  0  0  0  0
  9 20  1  0  0  0  0
 10 21  1  0  0  0  0
 11 14  1  0  0  0  0
 11 17  2  0  0  0  0
 12 16  1  0  0  0  0
 12 18  1  0  0  0  0
 12 19  2  0  0  0  0
 15 16  1  0  0  0  0
  1 22  1  0  0  0  0
  2 23  1  0  0  0  0
  3 24  1  0  0  0  0
  4 25  1  0  0  0  0
  5 26  1  0  0  0  0
 13 27  1  0  0  0  0
 13 28  1  0  0  0  0
 13 29  1  0  0  0  0
 14 30  1  0  0  0  0
 14 31  1  0  0  0  0
 14 32  1  0  0  0  0
 15 33  1  0  0  0  0
 15 34  1  0  0  0  0
 15 35  1  0  0  0  0
 16 36  1  0  0  0  0
 18 37  1  0  0  0  0
M  END
> <series>
3-aminopyridine-like

> <r_inhibition_at_20_uM>

> <r_inhibition_at_50_uM>
0.0

> <r_IC50>

> <f_inhibition_at_20_uM>
-0.4111225000000001

> <f_inhibition_at_50_uM>
-2.873356

> <f_avg_IC50>

> <f_avg_pIC50>

> <ASSAYED>
True

> <Hybrid2>
-11.810582

> <docked_fragment>
x0678

> <Mpro-_dock>
-6.600251

> <site>
active-noncovalent

$$$$
CHR-SOS-f7373dd1-4
  -OEChem-07042000473D

 41 43  0     0  0  0  0  0  0999 V2000
   14.1326   -1.7377   23.0101 C   0  0  0  0  0  0  0  0  0  0  0  0
   13.0980   -2.1701   22.1805 C   0  0  0  0  0  0  0  0  0  0  0  0
   13.8606   -0.8762   24.0729 C   0  0  0  0  0  0  0  0  0  0  0  0
    5.4859    0.1035   18.8514 C   0  0  0  0  0  0  0  0  0  0  0  0
   11.7914   -1.7410   22.4135 C   0  0  0  0  0  0  0  0  0  0  0  0
   12.5540   -0.4470   24.3060 C   0  0  0  0  0  0  0  0  0  0  0  0
    6.1263    0.2900   20.0714 C   0  0  0  0  0  0  0  0  0  0  0  0
    6.2687    0.0507   17.7094 C   0  0  0  0  0  0  0  0  0  0  0  0
    8.2026    0.3494   18.9132 C   0  0  0  0  0  0  0  0  0  0  0  0
   11.5194   -0.8794   23.4763 C   0  0  0  0  0  0  0  0  0  0  0  0
    7.5104    0.4164   20.1116 C   0  0  0  0  0  0  0  0  0  0  0  0
    9.5608    0.7496   21.5351 C   0  0  0  0  0  0  0  0  0  0  0  0
    9.0031   -2.4764   24.4275 C   0  0  0  0  0  0  0  0  0  0  0  0
    9.3615   -1.6912   25.6876 C   0  0  0  0  0  0  0  0  0  0  0  0
    9.0473   -1.4654   23.2826 C   0  0  0  0  0  0  0  0  0  0  0  0
    9.6657   -0.2691   25.2178 C   0  0  0  0  0  0  0  0  0  0  0  0
   10.0802   -0.4060   23.7335 C   0  0  0  0  0  0  0  0  0  0  0  0
    9.8592    0.9335   23.0109 C   0  0  0  0  0  0  0  0  0  0  0  0
    7.6154    0.1693   17.7088 N   0  0  0  0  0  0  0  0  0  0  0  0
    8.1903    0.6074   21.3379 N   0  0  0  0  0  0  0  0  0  0  0  0
   10.4421    0.7369   20.6821 O   0  0  0  0  0  0  0  0  0  0  0  0
   15.1497   -2.0731   22.8293 H   0  0  0  0  0  0  0  0  0  0  0  0
   13.3094   -2.8418   21.3536 H   0  0  0  0  0  0  0  0  0  0  0  0
   14.6656   -0.5402   24.7197 H   0  0  0  0  0  0  0  0  0  0  0  0
    4.4080    0.0025   18.7963 H   0  0  0  0  0  0  0  0  0  0  0  0
   10.9917   -2.0829   21.7618 H   0  0  0  0  0  0  0  0  0  0  0  0
   12.3515    0.2243   25.1363 H   0  0  0  0  0  0  0  0  0  0  0  0
    5.5377    0.3355   20.9839 H   0  0  0  0  0  0  0  0  0  0  0  0
    5.8172   -0.0924   16.7332 H   0  0  0  0  0  0  0  0  0  0  0  0
    9.2842    0.4410   18.8802 H   0  0  0  0  0  0  0  0  0  0  0  0
    9.6962   -3.3029   24.2535 H   0  0  0  0  0  0  0  0  0  0  0  0
    7.9997   -2.9011   24.5251 H   0  0  0  0  0  0  0  0  0  0  0  0
    8.5155   -1.6924   26.3812 H   0  0  0  0  0  0  0  0  0  0  0  0
   10.2167   -2.1282   26.2089 H   0  0  0  0  0  0  0  0  0  0  0  0
    9.3866   -1.9712   22.3744 H   0  0  0  0  0  0  0  0  0  0  0  0
    8.0655   -1.0382   23.0780 H   0  0  0  0  0  0  0  0  0  0  0  0
    8.8107    0.3972   25.3577 H   0  0  0  0  0  0  0  0  0  0  0  0
   10.4937    0.1326   25.8132 H   0  0  0  0  0  0  0  0  0  0  0  0
   10.7572    1.5456   23.1190 H   0  0  0  0  0  0  0  0  0  0  0  0
    9.0228    1.4551   23.4811 H   0  0  0  0  0  0  0  0  0  0  0  0
    7.5960    0.6432   22.1636 H   0  0  0  0  0  0  0  0  0  0  0  0
  1  2  1  0  0  0  0
  1  3  2  0  0  0  0
  2  5  2  0  0  0  0
  3  6  1  0  0  0  0
  4  7  2  0  0  0  0
  4  8  1  0  0  0  0
  5 10  1  0  0  0  0
  6 10  2  0  0  0  0
  7 11  1  0  0  0  0
  8 19  2  0  0  0  0
  9 11  2  0  0  0  0
  9 19  1  0  0  0  0
 10 17  1  0  0  0  0
 11 20  1  0  0  0  0
 12 18  1  0  0  0  0
 12 20  1  0  0  0  0
 12 21  2  0  0  0  0
 13 14  1  0  0  0  0
 13 15  1  0  0  0  0
 14 16  1  0  0  0  0
 15 17  1  0  0  0  0
 16 17  1  0  0  0  0
 17 18  1  0  0  0  0
  1 22  1  0  0  0  0
  2 23  1  0  0  0  0
  3 24  1  0  0  0  0
  4 25  1  0  0  0  0
  5 26  1  0  0  0  0
  6 27  1  0  0  0  0
  7 28  1  0  0  0  0
  8 29  1  0  0  0  0
  9 30  1  0  0  0  0
 13 31  1  0  0  0  0
 13 32  1  0  0  0  0
 14 33  1  0  0  0  0
 14 34  1  0  0  0  0
 15 35  1  0  0  0  0
 15 36  1  0  0  0  0
 16 37  1  0  0  0  0
 16 38  1  0  0  0  0
 18 39  1  0  0  0  0
 18 40  1  0  0  0  0
 20 41  1  0  0  0  0
M  END
> <series>
3-aminopyridine-like

> <r_inhibition_at_20_uM>
0.0

> <r_inhibition_at_50_uM>
13.88

> <r_IC50>

> <f_inhibition_at_20_uM>

> <f_inhibition_at_50_uM>
3.982564

> <f_avg_IC50>

> <f_avg_pIC50>

> <ASSAYED>
True

> <Hybrid2>
-11.737092

> <docked_fragment>
x0678

> <Mpro-_dock>
-7.423703

> <site>
active-noncovalent

$$$$
JAN-GHE-83b26c96-8
  -OEChem-07042000473D

 40 41  0     1  0  0  0  0  0999 V2000
   12.0473    0.3350   24.1521 C   0  0  0  0  0  0  0  0  0  0  0  0
   10.8044   -0.2890   24.0455 C   0  0  0  0  0  0  0  0  0  0  0  0
   13.1292   -0.1336   23.4066 C   0  0  0  0  0  0  0  0  0  0  0  0
    5.7179    0.9564   19.1343 C   0  0  0  0  0  0  0  0  0  0  0  0
   11.7252   -1.8503   22.4481 C   0  0  0  0  0  0  0  0  0  0  0  0
    6.2929    0.5424   17.9436 C   0  0  0  0  0  0  0  0  0  0  0  0
    7.9239   -0.6466   19.0409 C   0  0  0  0  0  0  0  0  0  0  0  0
   10.6434   -1.3816   23.1936 C   0  0  0  0  0  0  0  0  0  0  0  0
    6.3010    0.5288   20.3219 C   0  0  0  0  0  0  0  0  0  0  0  0
    7.4255   -0.2882   20.2831 C   0  0  0  0  0  0  0  0  0  0  0  0
   12.9681   -1.2262   22.5547 C   0  0  0  0  0  0  0  0  0  0  0  0
    8.7601   -1.9370   21.6416 C   0  0  0  0  0  0  0  0  0  0  0  0
    5.7021    0.9606   21.6202 C   0  0  0  0  0  0  0  0  0  0  0  0
    6.9693   -3.4811   24.3286 C   0  0  0  0  0  0  0  0  0  0  0  0
    8.0025   -4.2277   23.4991 C   0  0  0  0  0  0  0  0  0  0  0  0
    9.3667   -3.5308   23.5466 C   0  0  0  0  0  0  0  0  0  0  0  0
    9.2877   -2.0625   23.0788 C   0  0  1  0  0  0  0  0  0  0  0  0
    7.3847   -0.2509   17.8660 N   0  0  0  0  0  0  0  0  0  0  0  0
    8.0545   -0.7496   21.4636 N   0  0  0  0  0  0  0  0  0  0  0  0
    8.9840   -2.7983   20.7958 O   0  0  0  0  0  0  0  0  0  0  0  0
   14.3036   -1.8046   21.6360 Cl  0  0  0  0  0  0  0  0  0  0  0  0
   12.1724    1.1858   24.8157 H   0  0  0  0  0  0  0  0  0  0  0  0
    9.9670    0.0828   24.6302 H   0  0  0  0  0  0  0  0  0  0  0  0
   14.0922    0.3625   23.4999 H   0  0  0  0  0  0  0  0  0  0  0  0
    4.8406    1.5943   19.1301 H   0  0  0  0  0  0  0  0  0  0  0  0
   11.5944   -2.7022   21.7849 H   0  0  0  0  0  0  0  0  0  0  0  0
    5.8761    0.8486   16.9897 H   0  0  0  0  0  0  0  0  0  0  0  0
    8.7989   -1.2827   18.9453 H   0  0  0  0  0  0  0  0  0  0  0  0
    4.9451    0.2388   21.9479 H   0  0  0  0  0  0  0  0  0  0  0  0
    6.4675    1.0436   22.4016 H   0  0  0  0  0  0  0  0  0  0  0  0
    5.2296    1.9466   21.5302 H   0  0  0  0  0  0  0  0  0  0  0  0
    7.2879   -3.4020   25.3729 H   0  0  0  0  0  0  0  0  0  0  0  0
    6.8098   -2.4702   23.9400 H   0  0  0  0  0  0  0  0  0  0  0  0
    6.0109   -4.0091   24.3048 H   0  0  0  0  0  0  0  0  0  0  0  0
    7.6525   -4.2883   22.4621 H   0  0  0  0  0  0  0  0  0  0  0  0
    8.0842   -5.2537   23.8741 H   0  0  0  0  0  0  0  0  0  0  0  0
   10.0831   -4.0974   22.9382 H   0  0  0  0  0  0  0  0  0  0  0  0
    9.7393   -3.5646   24.5792 H   0  0  0  0  0  0  0  0  0  0  0  0
    8.5777   -1.5473   23.7411 H   0  0  0  0  0  0  0  0  0  0  0  0
    7.9788   -0.1275   22.2654 H   0  0  0  0  0  0  0  0  0  0  0  0
  1  2  2  0  0  0  0
  1  3  1  0  0  0  0
  2  8  1  0  0  0  0
  3 11  2  0  0  0  0
  4  6  2  0  0  0  0
  4  9  1  0  0  0  0
  5  8  2  0  0  0  0
  5 11  1  0  0  0  0
  6 18  1  0  0  0  0
  7 10  1  0  0  0  0
  7 18  2  0  0  0  0
  8 17  1  0  0  0  0
  9 10  2  0  0  0  0
  9 13  1  0  0  0  0
 10 19  1  0  0  0  0
 11 21  1  0  0  0  0
 12 17  1  0  0  0  0
 12 19  1  0  0  0  0
 12 20  2  0  0  0  0
 14 15  1  0  0  0  0
 15 16  1  0  0  0  0
 16 17  1  0  0  0  0
  1 22  1  0  0  0  0
  2 23  1  0  0  0  0
  3 24  1  0  0  0  0
  4 25  1  0  0  0  0
  5 26  1  0  0  0  0
  6 27  1  0  0  0  0
  7 28  1  0  0  0  0
 13 29  1  0  0  0  0
 13 30  1  0  0  0  0
 13 31  1  0  0  0  0
 14 32  1  0  0  0  0
 14 33  1  0  0  0  0
 14 34  1  0  0  0  0
 15 35  1  0  0  0  0
 15 36  1  0  0  0  0
 16 37  1  0  0  0  0
 16 38  1  0  0  0  0
 17 39  1  0  0  0  0
 19 40  1  0  0  0  0
M  END
> <series>
3-aminopyridine-like

> <r_inhibition_at_20_uM>

> <r_inhibition_at_50_uM>
78.318200805

> <r_IC50>
5.479371838136054

> <f_inhibition_at_20_uM>
77.85272499999998

> <f_inhibition_at_50_uM>
90.64927

> <f_avg_IC50>
17.31034561223188

> <f_avg_pIC50>
4.761694261068178

> <ASSAYED>
True

> <Hybrid2>
-11.584179

> <docked_fragment>
x0678

> <Mpro-_dock>
-6.658877

> <site>
active-noncovalent

$$$$
BAR-COM-0f94fc3d-25
  -OEChem-07042000473D

 37 39  0     0  0  0  0  0  0999 V2000
   12.5979    0.5213   24.2367 C   0  0  0  0  0  0  0  0  0  0  0  0
   11.3294    0.0795   23.8608 C   0  0  0  0  0  0  0  0  0  0  0  0
   13.7267   -0.2193   23.8858 C   0  0  0  0  0  0  0  0  0  0  0  0
    5.6971    1.0683   18.9364 C   0  0  0  0  0  0  0  0  0  0  0  0
   12.3183   -1.8435   22.7833 C   0  0  0  0  0  0  0  0  0  0  0  0
    6.3305    0.8493   17.7237 C   0  0  0  0  0  0  0  0  0  0  0  0
    8.0179   -0.3501   18.7198 C   0  0  0  0  0  0  0  0  0  0  0  0
   11.1896   -1.1029   23.1342 C   0  0  0  0  0  0  0  0  0  0  0  0
    6.2809    0.5368   20.0809 C   0  0  0  0  0  0  0  0  0  0  0  0
    7.4636   -0.1872   19.9792 C   0  0  0  0  0  0  0  0  0  0  0  0
   13.5869   -1.4017   23.1591 C   0  0  0  0  0  0  0  0  0  0  0  0
    8.1141   -2.8357   23.4057 C   0  0  0  0  0  0  0  0  0  0  0  0
    9.4545   -0.9688   21.3020 C   0  0  0  0  0  0  0  0  0  0  0  0
    9.4728   -3.1682   22.7692 C   0  0  0  0  0  0  0  0  0  0  0  0
    8.5691   -1.4098   23.7542 C   0  0  0  0  0  0  0  0  0  0  0  0
    9.7331   -1.6095   22.7021 C   0  0  0  0  0  0  0  0  0  0  0  0
    5.6197    0.7582   21.4017 C   0  0  0  0  0  0  0  0  0  0  0  0
    7.4800    0.1513   17.5854 N   0  0  0  0  0  0  0  0  0  0  0  0
    8.0960   -0.7480   21.1141 N   0  0  0  0  0  0  0  0  0  0  0  0
    7.0821   -3.4525   23.5603 O   0  0  0  0  0  0  0  0  0  0  0  0
   10.3752   -0.7216   20.5299 O   0  0  0  0  0  0  0  0  0  0  0  0
   14.9797   -2.3154   22.7266 Cl  0  0  0  0  0  0  0  0  0  0  0  0
   12.7066    1.4418   24.8026 H   0  0  0  0  0  0  0  0  0  0  0  0
   10.4548    0.6623   24.1379 H   0  0  0  0  0  0  0  0  0  0  0  0
   14.7087    0.1373   24.1855 H   0  0  0  0  0  0  0  0  0  0  0  0
    4.7751    1.6379   18.9815 H   0  0  0  0  0  0  0  0  0  0  0  0
   12.2023   -2.7646   22.2168 H   0  0  0  0  0  0  0  0  0  0  0  0
    5.9158    1.2429   16.8015 H   0  0  0  0  0  0  0  0  0  0  0  0
    8.9399   -0.9056   18.5757 H   0  0  0  0  0  0  0  0  0  0  0  0
   10.1324   -3.7293   23.4384 H   0  0  0  0  0  0  0  0  0  0  0  0
    9.4018   -3.6791   21.8059 H   0  0  0  0  0  0  0  0  0  0  0  0
    7.8375   -0.6356   23.5105 H   0  0  0  0  0  0  0  0  0  0  0  0
    8.8864   -1.3048   24.7961 H   0  0  0  0  0  0  0  0  0  0  0  0
    4.9105   -0.0509   21.6117 H   0  0  0  0  0  0  0  0  0  0  0  0
    6.3572    0.7960   22.2127 H   0  0  0  0  0  0  0  0  0  0  0  0
    5.0774    1.7117   21.4185 H   0  0  0  0  0  0  0  0  0  0  0  0
    7.4724   -1.0153   21.8730 H   0  0  0  0  0  0  0  0  0  0  0  0
  1  2  2  0  0  0  0
  1  3  1  0  0  0  0
  2  8  1  0  0  0  0
  3 11  2  0  0  0  0
  4  6  2  0  0  0  0
  4  9  1  0  0  0  0
  5  8  2  0  0  0  0
  5 11  1  0  0  0  0
  6 18  1  0  0  0  0
  7 10  1  0  0  0  0
  7 18  2  0  0  0  0
  8 16  1  0  0  0  0
  9 10  2  0  0  0  0
  9 17  1  0  0  0  0
 10 19  1  0  0  0  0
 11 22  1  0  0  0  0
 12 14  1  0  0  0  0
 12 15  1  0  0  0  0
 12 20  2  0  0  0  0
 13 16  1  0  0  0  0
 13 19  1  0  0  0  0
 13 21  2  0  0  0  0
 14 16  1  0  0  0  0
 15 16  1  0  0  0  0
  1 23  1  0  0  0  0
  2 24  1  0  0  0  0
  3 25  1  0  0  0  0
  4 26  1  0  0  0  0
  5 27  1  0  0  0  0
  6 28  1  0  0  0  0
  7 29  1  0  0  0  0
 14 30  1  0  0  0  0
 14 31  1  0  0  0  0
 15 32  1  0  0  0  0
 15 33  1  0  0  0  0
 17 34  1  0  0  0  0
 17 35  1  0  0  0  0
 17 36  1  0  0  0  0
 19 37  1  0  0  0  0
M  END
> <series>
3-aminopyridine-like

> <r_inhibition_at_20_uM>

> <r_inhibition_at_50_uM>
27.025

> <r_IC50>

> <f_inhibition_at_20_uM>
9.683061

> <f_inhibition_at_50_uM>
22.602535

> <f_avg_IC50>

> <f_avg_pIC50>

> <ASSAYED>
True

> <Hybrid2>
-11.545374

> <docked_fragment>
x0678

> <Mpro-_dock>
-6.14058

> <site>
active-noncovalent

$$$$
EDG-MED-0da5ad92-18
  -OEChem-07042000473D

 33 34  0     0  0  0  0  0  0999 V2000
   13.4214   -1.3642   21.7881 C   0  0  0  0  0  0  0  0  0  0  0  0
   12.1602   -0.7691   21.8161 C   0  0  0  0  0  0  0  0  0  0  0  0
   14.2820   -1.2261   22.8772 C   0  0  0  0  0  0  0  0  0  0  0  0
    5.8417    1.0241   19.0283 C   0  0  0  0  0  0  0  0  0  0  0  0
   12.6202    0.1023   24.0220 C   0  0  0  0  0  0  0  0  0  0  0  0
    6.4451    0.6802   17.8294 C   0  0  0  0  0  0  0  0  0  0  0  0
   11.7596   -0.0358   22.9329 C   0  0  0  0  0  0  0  0  0  0  0  0
    6.5956    0.9142   20.1914 C   0  0  0  0  0  0  0  0  0  0  0  0
    7.9113    0.4701   20.1211 C   0  0  0  0  0  0  0  0  0  0  0  0
   13.8814   -0.4928   23.9941 C   0  0  0  0  0  0  0  0  0  0  0  0
    8.4220    0.1507   18.8733 C   0  0  0  0  0  0  0  0  0  0  0  0
    9.8887    1.0076   21.5860 C   0  0  0  0  0  0  0  0  0  0  0  0
    5.9669    1.2777   21.4971 C   0  0  0  0  0  0  0  0  0  0  0  0
   10.4114    0.6013   22.9616 C   0  0  0  0  0  0  0  0  0  0  0  0
    7.7204    0.2448   17.7215 N   0  0  0  0  0  0  0  0  0  0  0  0
    9.7625   -0.3039   18.7901 N   0  0  0  0  0  0  0  0  0  0  0  0
    8.6943    0.3538   21.2943 N   0  0  0  0  0  0  0  0  0  0  0  0
   10.4892    1.8090   20.8773 O   0  0  0  0  0  0  0  0  0  0  0  0
   14.9441   -0.3218   25.3369 Cl  0  0  0  0  0  0  0  0  0  0  0  0
   13.7330   -1.9350   20.9182 H   0  0  0  0  0  0  0  0  0  0  0  0
   11.4962   -0.8818   20.9630 H   0  0  0  0  0  0  0  0  0  0  0  0
   15.2622   -1.6952   22.8414 H   0  0  0  0  0  0  0  0  0  0  0  0
    4.8125    1.3662   19.0487 H   0  0  0  0  0  0  0  0  0  0  0  0
   12.3030    0.6747   24.8907 H   0  0  0  0  0  0  0  0  0  0  0  0
    5.8997    0.7492   16.8939 H   0  0  0  0  0  0  0  0  0  0  0  0
    5.4871    0.3998   21.9445 H   0  0  0  0  0  0  0  0  0  0  0  0
    6.7129    1.6658   22.2012 H   0  0  0  0  0  0  0  0  0  0  0  0
    5.2110    2.0620   21.3677 H   0  0  0  0  0  0  0  0  0  0  0  0
    9.6750   -0.0807   23.4179 H   0  0  0  0  0  0  0  0  0  0  0  0
   10.4271    1.4996   23.6005 H   0  0  0  0  0  0  0  0  0  0  0  0
   10.3115   -0.3356   19.6209 H   0  0  0  0  0  0  0  0  0  0  0  0
   10.1514   -0.4902   17.8919 H   0  0  0  0  0  0  0  0  0  0  0  0
    8.3435   -0.2818   22.0079 H   0  0  0  0  0  0  0  0  0  0  0  0
  1  2  2  0  0  0  0
  1  3  1  0  0  0  0
  2  7  1  0  0  0  0
  3 10  2  0  0  0  0
  4  6  2  0  0  0  0
  4  8  1  0  0  0  0
  5  7  2  0  0  0  0
  5 10  1  0  0  0  0
  6 15  1  0  0  0  0
  7 14  1  0  0  0  0
  8  9  2  0  0  0  0
  8 13  1  0  0  0  0
  9 11  1  0  0  0  0
  9 17  1  0  0  0  0
 10 19  1  0  0  0  0
 11 15  2  0  0  0  0
 11 16  1  0  0  0  0
 12 14  1  0  0  0  0
 12 17  1  0  0  0  0
 12 18  2  0  0  0  0
  1 20  1  0  0  0  0
  2 21  1  0  0  0  0
  3 22  1  0  0  0  0
  4 23  1  0  0  0  0
  5 24  1  0  0  0  0
  6 25  1  0  0  0  0
 13 26  1  0  0  0  0
 13 27  1  0  0  0  0
 13 28  1  0  0  0  0
 14 29  1  0  0  0  0
 14 30  1  0  0  0  0
 16 31  1  0  0  0  0
 16 32  1  0  0  0  0
 17 33  1  0  0  0  0
M  END
> <series>
3-aminopyridine-like

> <r_inhibition_at_20_uM>

> <r_inhibition_at_50_uM>
0.0

> <r_IC50>

> <f_inhibition_at_20_uM>
6.437589

> <f_inhibition_at_50_uM>
20.0662

> <f_avg_IC50>

> <f_avg_pIC50>

> <ASSAYED>
True

> <Hybrid2>
-11.447077

> <docked_fragment>
x0678

> <Mpro-_dock>
-7.463092

> <site>
active-noncovalent

$$$$
JOR-UNI-2fc98d0b-12
  -OEChem-07042000473D

 49 51  0     0  0  0  0  0  0999 V2000
   13.7842   -0.2138   23.0506 C   0  0  0  0  0  0  0  0  0  0  0  0
    5.6838    0.8270   18.9916 C   0  0  0  0  0  0  0  0  0  0  0  0
   12.4746   -0.1999   22.5708 C   0  0  0  0  0  0  0  0  0  0  0  0
    6.4629    0.5332   20.1051 C   0  0  0  0  0  0  0  0  0  0  0  0
   14.3079   -1.3769   23.6152 C   0  0  0  0  0  0  0  0  0  0  0  0
   12.2122   -2.5122   23.2203 C   0  0  0  0  0  0  0  0  0  0  0  0
    6.2862    0.7700   17.7451 C   0  0  0  0  0  0  0  0  0  0  0  0
    8.3095    0.1673   18.6515 C   0  0  0  0  0  0  0  0  0  0  0  0
   11.6885   -1.3491   22.6557 C   0  0  0  0  0  0  0  0  0  0  0  0
    7.8018    0.1962   19.9405 C   0  0  0  0  0  0  0  0  0  0  0  0
   13.5219   -2.5260   23.7000 C   0  0  0  0  0  0  0  0  0  0  0  0
    9.9755   -0.4616   21.0491 C   0  0  0  0  0  0  0  0  0  0  0  0
    7.3726   -5.0233   26.8001 C   0  0  0  0  0  0  0  0  0  0  0  0
    7.6791   -5.3986   25.3536 C   0  0  0  0  0  0  0  0  0  0  0  0
    6.8479   -3.5951   26.9100 C   0  0  0  0  0  0  0  0  0  0  0  0
    8.6333   -4.3999   24.7026 C   0  0  0  0  0  0  0  0  0  0  0  0
    7.8007   -2.5934   26.2615 C   0  0  0  0  0  0  0  0  0  0  0  0
    8.1046   -2.9627   24.8033 C   0  0  0  0  0  0  0  0  0  0  0  0
    9.1002   -1.9777   24.1936 C   0  0  0  0  0  0  0  0  0  0  0  0
    9.3575   -2.2463   22.7178 C   0  0  0  0  0  0  0  0  0  0  0  0
    7.5836    0.4466   17.5457 N   0  0  0  0  0  0  0  0  0  0  0  0
    8.6205   -0.1077   21.0551 N   0  0  0  0  0  0  0  0  0  0  0  0
   10.3110   -1.3329   22.1517 N   0  0  0  0  0  0  0  0  0  0  0  0
   10.7814   -0.0737   20.2018 O   0  0  0  0  0  0  0  0  0  0  0  0
   14.1680   -3.9612   24.3965 Cl  0  0  0  0  0  0  0  0  0  0  0  0
   14.3962    0.6812   22.9845 H   0  0  0  0  0  0  0  0  0  0  0  0
    4.6379    1.0921   19.0962 H   0  0  0  0  0  0  0  0  0  0  0  0
   12.0772    0.7125   22.1330 H   0  0  0  0  0  0  0  0  0  0  0  0
    6.0171    0.5698   21.0956 H   0  0  0  0  0  0  0  0  0  0  0  0
   15.3301   -1.3726   23.9844 H   0  0  0  0  0  0  0  0  0  0  0  0
   11.5965   -3.4067   23.2845 H   0  0  0  0  0  0  0  0  0  0  0  0
    5.7217    0.9913   16.8453 H   0  0  0  0  0  0  0  0  0  0  0  0
    9.3471   -0.0888   18.4591 H   0  0  0  0  0  0  0  0  0  0  0  0
    6.6344   -5.7201   27.2132 H   0  0  0  0  0  0  0  0  0  0  0  0
    8.2828   -5.1248   27.4037 H   0  0  0  0  0  0  0  0  0  0  0  0
    8.1162   -6.4030   25.3188 H   0  0  0  0  0  0  0  0  0  0  0  0
    6.7447   -5.4371   24.7802 H   0  0  0  0  0  0  0  0  0  0  0  0
    5.8651   -3.5287   26.4274 H   0  0  0  0  0  0  0  0  0  0  0  0
    6.7032   -3.3366   27.9652 H   0  0  0  0  0  0  0  0  0  0  0  0
    9.6153   -4.4715   25.1879 H   0  0  0  0  0  0  0  0  0  0  0  0
    8.7794   -4.6722   23.6504 H   0  0  0  0  0  0  0  0  0  0  0  0
    7.3590   -1.5908   26.3095 H   0  0  0  0  0  0  0  0  0  0  0  0
    8.7330   -2.5572   26.8397 H   0  0  0  0  0  0  0  0  0  0  0  0
    7.1707   -2.8973   24.2291 H   0  0  0  0  0  0  0  0  0  0  0  0
   10.0441   -2.0577   24.7417 H   0  0  0  0  0  0  0  0  0  0  0  0
    8.7236   -0.9596   24.3348 H   0  0  0  0  0  0  0  0  0  0  0  0
    9.7648   -3.2541   22.5896 H   0  0  0  0  0  0  0  0  0  0  0  0
    8.4356   -2.1743   22.1321 H   0  0  0  0  0  0  0  0  0  0  0  0
    8.1723   -0.0638   21.9661 H   0  0  0  0  0  0  0  0  0  0  0  0
  1  3  2  0  0  0  0
  1  5  1  0  0  0  0
  2  4  2  0  0  0  0
  2  7  1  0  0  0  0
  3  9  1  0  0  0  0
  4 10  1  0  0  0  0
  5 11  2  0  0  0  0
  6  9  2  0  0  0  0
  6 11  1  0  0  0  0
  7 21  2  0  0  0  0
  8 10  2  0  0  0  0
  8 21  1  0  0  0  0
  9 23  1  0  0  0  0
 10 22  1  0  0  0  0
 11 25  1  0  0  0  0
 12 22  1  0  0  0  0
 12 23  1  0  0  0  0
 12 24  2  0  0  0  0
 13 14  1  0  0  0  0
 13 15  1  0  0  0  0
 14 16  1  0  0  0  0
 15 17  1  0  0  0  0
 16 18  1  0  0  0  0
 17 18  1  0  0  0  0
 18 19  1  0  0  0  0
 19 20  1  0  0  0  0
 20 23  1  0  0  0  0
  1 26  1  0  0  0  0
  2 27  1  0  0  0  0
  3 28  1  0  0  0  0
  4 29  1  0  0  0  0
  5 30  1  0  0  0  0
  6 31  1  0  0  0  0
  7 32  1  0  0  0  0
  8 33  1  0  0  0  0
 13 34  1  0  0  0  0
 13 35  1  0  0  0  0
 14 36  1  0  0  0  0
 14 37  1  0  0  0  0
 15 38  1  0  0  0  0
 15 39  1  0  0  0  0
 16 40  1  0  0  0  0
 16 41  1  0  0  0  0
 17 42  1  0  0  0  0
 17 43  1  0  0  0  0
 18 44  1  0  0  0  0
 19 45  1  0  0  0  0
 19 46  1  0  0  0  0
 20 47  1  0  0  0  0
 20 48  1  0  0  0  0
 22 49  1  0  0  0  0
M  END
> <series>
3-aminopyridine-like

> <r_inhibition_at_20_uM>

> <r_inhibition_at_50_uM>
78.94465384426447

> <r_IC50>

> <f_inhibition_at_20_uM>
83.33063

> <f_inhibition_at_50_uM>
88.791675

> <f_avg_IC50>
3.0566719642303646

> <f_avg_pIC50>
5.5147511663667546

> <ASSAYED>
True

> <Hybrid2>
-11.440933

> <docked_fragment>
x0678

> <Mpro-_dock>
-7.387974

> <site>
active-noncovalent

$$$$
JAN-GHE-83b26c96-20
  -OEChem-07042000473D

 35 37  0     0  0  0  0  0  0999 V2000
   13.3262   -1.7365   23.6724 C   0  0  0  0  0  0  0  0  0  0  0  0
   12.0716   -2.2900   23.4175 C   0  0  0  0  0  0  0  0  0  0  0  0
   13.5187   -0.3601   23.5527 C   0  0  0  0  0  0  0  0  0  0  0  0
    5.9510    1.1221   19.1958 C   0  0  0  0  0  0  0  0  0  0  0  0
   11.2018   -0.0909   22.9230 C   0  0  0  0  0  0  0  0  0  0  0  0
    6.5229    0.8327   17.9674 C   0  0  0  0  0  0  0  0  0  0  0  0
    8.2162   -0.3774   18.9402 C   0  0  0  0  0  0  0  0  0  0  0  0
   11.0094   -1.4673   23.0427 C   0  0  0  0  0  0  0  0  0  0  0  0
    6.5691    0.6204   20.3358 C   0  0  0  0  0  0  0  0  0  0  0  0
    7.7239   -0.1445   20.2143 C   0  0  0  0  0  0  0  0  0  0  0  0
   12.4564    0.4627   23.1780 C   0  0  0  0  0  0  0  0  0  0  0  0
    9.1351   -1.8472   21.4115 C   0  0  0  0  0  0  0  0  0  0  0  0
    8.6681   -2.1014   23.9141 C   0  0  0  0  0  0  0  0  0  0  0  0
    9.3195   -3.3677   23.4613 C   0  0  0  0  0  0  0  0  0  0  0  0
    9.6692   -2.0592   22.7705 C   0  0  0  0  0  0  0  0  0  0  0  0
    5.9744    0.9176   21.6733 C   0  0  0  0  0  0  0  0  0  0  0  0
    7.6435    0.0932   17.8097 N   0  0  0  0  0  0  0  0  0  0  0  0
    8.3891   -0.6774   21.3438 N   0  0  0  0  0  0  0  0  0  0  0  0
    9.3697   -2.6482   20.5124 O   0  0  0  0  0  0  0  0  0  0  0  0
   12.6945    2.1607   23.0305 Cl  0  0  0  0  0  0  0  0  0  0  0  0
   14.1533   -2.3771   23.9642 H   0  0  0  0  0  0  0  0  0  0  0  0
   11.9319   -3.3636   23.5135 H   0  0  0  0  0  0  0  0  0  0  0  0
   14.5018    0.0572   23.7546 H   0  0  0  0  0  0  0  0  0  0  0  0
    5.0495    1.7222   19.2563 H   0  0  0  0  0  0  0  0  0  0  0  0
   10.3706    0.5470   22.6305 H   0  0  0  0  0  0  0  0  0  0  0  0
    6.0794    1.2005   17.0480 H   0  0  0  0  0  0  0  0  0  0  0  0
    9.1138   -0.9675   18.7804 H   0  0  0  0  0  0  0  0  0  0  0  0
    7.6170   -1.9669   23.6855 H   0  0  0  0  0  0  0  0  0  0  0  0
    8.9598   -1.7028   24.8791 H   0  0  0  0  0  0  0  0  0  0  0  0
   10.0493   -3.8217   24.1219 H   0  0  0  0  0  0  0  0  0  0  0  0
    8.7069   -4.0856   22.9278 H   0  0  0  0  0  0  0  0  0  0  0  0
    5.2514    0.1410   21.9484 H   0  0  0  0  0  0  0  0  0  0  0  0
    6.7483    0.9656   22.4493 H   0  0  0  0  0  0  0  0  0  0  0  0
    5.4623    1.8878   21.6725 H   0  0  0  0  0  0  0  0  0  0  0  0
    8.3039   -0.1306   22.1981 H   0  0  0  0  0  0  0  0  0  0  0  0
  1  2  2  0  0  0  0
  1  3  1  0  0  0  0
  2  8  1  0  0  0  0
  3 11  2  0  0  0  0
  4  6  2  0  0  0  0
  4  9  1  0  0  0  0
  5  8  2  0  0  0  0
  5 11  1  0  0  0  0
  6 17  1  0  0  0  0
  7 10  1  0  0  0  0
  7 17  2  0  0  0  0
  8 15  1  0  0  0  0
  9 10  2  0  0  0  0
  9 16  1  0  0  0  0
 10 18  1  0  0  0  0
 11 20  1  0  0  0  0
 12 15  1  0  0  0  0
 12 18  1  0  0  0  0
 12 19  2  0  0  0  0
 13 14  1  0  0  0  0
 13 15  1  0  0  0  0
 14 15  1  0  0  0  0
  1 21  1  0  0  0  0
  2 22  1  0  0  0  0
  3 23  1  0  0  0  0
  4 24  1  0  0  0  0
  5 25  1  0  0  0  0
  6 26  1  0  0  0  0
  7 27  1  0  0  0  0
 13 28  1  0  0  0  0
 13 29  1  0  0  0  0
 14 30  1  0  0  0  0
 14 31  1  0  0  0  0
 16 32  1  0  0  0  0
 16 33  1  0  0  0  0
 16 34  1  0  0  0  0
 18 35  1  0  0  0  0
M  END
> <series>
3-aminopyridine-like

> <r_inhibition_at_20_uM>

> <r_inhibition_at_50_uM>
43.30332433

> <r_IC50>

> <f_inhibition_at_20_uM>
38.411715

> <f_inhibition_at_50_uM>
61.618515

> <f_avg_IC50>
99.49999999999996

> <f_avg_pIC50>

> <ASSAYED>
True

> <Hybrid2>
-11.297702

> <docked_fragment>
x0678

> <Mpro-_dock>
-6.54676

> <site>
active-noncovalent

$$$$
ALP-POS-95b75b4d-4
  -OEChem-07042000473D

 38 40  0     0  0  0  0  0  0999 V2000
   10.7520    0.7020   24.3833 C   0  0  0  0  0  0  0  0  0  0  0  0
   12.1147    0.5545   24.1248 C   0  0  0  0  0  0  0  0  0  0  0  0
    9.8427   -0.2315   23.8858 C   0  0  0  0  0  0  0  0  0  0  0  0
    5.7956    1.3554   19.2253 C   0  0  0  0  0  0  0  0  0  0  0  0
   11.6589   -1.4598   22.8710 C   0  0  0  0  0  0  0  0  0  0  0  0
    6.3375    1.1072   17.9745 C   0  0  0  0  0  0  0  0  0  0  0  0
    7.9487   -0.2778   18.8488 C   0  0  0  0  0  0  0  0  0  0  0  0
   12.5682   -0.5263   23.3686 C   0  0  0  0  0  0  0  0  0  0  0  0
   10.2962   -1.3123   23.1296 C   0  0  0  0  0  0  0  0  0  0  0  0
    6.3848    0.7394   20.3238 C   0  0  0  0  0  0  0  0  0  0  0  0
    7.4823   -0.0943   20.1406 C   0  0  0  0  0  0  0  0  0  0  0  0
    8.7803   -1.9681   21.2125 C   0  0  0  0  0  0  0  0  0  0  0  0
   14.4614   -1.2580   21.7704 C   0  0  0  0  0  0  0  0  0  0  0  0
   14.6118   -2.0690   23.0193 C   0  0  0  0  0  0  0  0  0  0  0  0
   14.0242   -0.6835   23.0929 C   0  0  0  0  0  0  0  0  0  0  0  0
    5.8213    0.9899   21.6841 C   0  0  0  0  0  0  0  0  0  0  0  0
    9.3235   -2.3099   22.5976 C   0  0  0  0  0  0  0  0  0  0  0  0
    7.4027    0.3036   17.7572 N   0  0  0  0  0  0  0  0  0  0  0  0
    8.1164   -0.7441   21.2262 N   0  0  0  0  0  0  0  0  0  0  0  0
    8.9394   -2.7162   20.2532 O   0  0  0  0  0  0  0  0  0  0  0  0
   10.3987    1.5436   24.9722 H   0  0  0  0  0  0  0  0  0  0  0  0
   12.8153    1.2873   24.5171 H   0  0  0  0  0  0  0  0  0  0  0  0
    8.7830   -0.1084   24.0923 H   0  0  0  0  0  0  0  0  0  0  0  0
    4.9386    2.0114   19.3343 H   0  0  0  0  0  0  0  0  0  0  0  0
   12.0114   -2.3028   22.2813 H   0  0  0  0  0  0  0  0  0  0  0  0
    5.9147    1.5636   17.0856 H   0  0  0  0  0  0  0  0  0  0  0  0
    8.8017   -0.9171   18.6414 H   0  0  0  0  0  0  0  0  0  0  0  0
   15.3601   -0.8503   21.3225 H   0  0  0  0  0  0  0  0  0  0  0  0
   13.7100   -1.5701   21.0552 H   0  0  0  0  0  0  0  0  0  0  0  0
   13.9598   -2.9255   23.1443 H   0  0  0  0  0  0  0  0  0  0  0  0
   15.6114   -2.2097   23.4129 H   0  0  0  0  0  0  0  0  0  0  0  0
   14.6589    0.0849   23.5164 H   0  0  0  0  0  0  0  0  0  0  0  0
    5.0476    0.2492   21.9170 H   0  0  0  0  0  0  0  0  0  0  0  0
    6.6018    0.9339   22.4529 H   0  0  0  0  0  0  0  0  0  0  0  0
    5.3783    1.9913   21.7513 H   0  0  0  0  0  0  0  0  0  0  0  0
    9.7890   -3.3080   22.5440 H   0  0  0  0  0  0  0  0  0  0  0  0
    8.4676   -2.4127   23.2848 H   0  0  0  0  0  0  0  0  0  0  0  0
    8.0832   -0.2605   22.1213 H   0  0  0  0  0  0  0  0  0  0  0  0
  1  2  1  0  0  0  0
  1  3  2  0  0  0  0
  2  8  2  0  0  0  0
  3  9  1  0  0  0  0
  4  6  2  0  0  0  0
  4 10  1  0  0  0  0
  5  8  1  0  0  0  0
  5  9  2  0  0  0  0
  6 18  1  0  0  0  0
  7 11  1  0  0  0  0
  7 18  2  0  0  0  0
  8 15  1  0  0  0  0
  9 17  1  0  0  0  0
 10 11  2  0  0  0  0
 10 16  1  0  0  0  0
 11 19  1  0  0  0  0
 12 17  1  0  0  0  0
 12 19  1  0  0  0  0
 12 20  2  0  0  0  0
 13 14  1  0  0  0  0
 13 15  1  0  0  0  0
 14 15  1  0  0  0  0
  1 21  1  0  0  0  0
  2 22  1  0  0  0  0
  3 23  1  0  0  0  0
  4 24  1  0  0  0  0
  5 25  1  0  0  0  0
  6 26  1  0  0  0  0
  7 27  1  0  0  0  0
 13 28  1  0  0  0  0
 13 29  1  0  0  0  0
 14 30  1  0  0  0  0
 14 31  1  0  0  0  0
 15 32  1  0  0  0  0
 16 33  1  0  0  0  0
 16 34  1  0  0  0  0
 16 35  1  0  0  0  0
 17 36  1  0  0  0  0
 17 37  1  0  0  0  0
 19 38  1  0  0  0  0
M  END
> <series>
3-aminopyridine-like

> <r_inhibition_at_20_uM>

> <r_inhibition_at_50_uM>
23.365588100624127

> <r_IC50>

> <f_inhibition_at_20_uM>
7.407047500000001

> <f_inhibition_at_50_uM>
19.832635

> <f_avg_IC50>

> <f_avg_pIC50>

> <ASSAYED>
True

> <Hybrid2>
-11.273206

> <docked_fragment>
x0678

> <Mpro-_dock>
-6.378911

> <site>
active-noncovalent

$$$$
JAN-GHE-83b26c96-15
  -OEChem-07042000473D

 34 35  0     0  0  0  0  0  0999 V2000
   13.6727   -1.5191   20.8357 C   0  0  0  0  0  0  0  0  0  0  0  0
   12.2883   -1.3776   20.9290 C   0  0  0  0  0  0  0  0  0  0  0  0
   14.4538   -1.5147   21.9914 C   0  0  0  0  0  0  0  0  0  0  0  0
    5.7984    1.2530   18.7380 C   0  0  0  0  0  0  0  0  0  0  0  0
   12.4657   -1.2271   23.3338 C   0  0  0  0  0  0  0  0  0  0  0  0
    6.3807    1.0637   17.4950 C   0  0  0  0  0  0  0  0  0  0  0  0
    8.0605   -0.2301   18.3796 C   0  0  0  0  0  0  0  0  0  0  0  0
   11.6847   -1.2316   22.1780 C   0  0  0  0  0  0  0  0  0  0  0  0
    6.4040    0.6560   19.8380 C   0  0  0  0  0  0  0  0  0  0  0  0
    7.5570   -0.1013   19.6640 C   0  0  0  0  0  0  0  0  0  0  0  0
   13.8502   -1.3687   23.2405 C   0  0  0  0  0  0  0  0  0  0  0  0
    9.5654   -0.3965   21.0625 C   0  0  0  0  0  0  0  0  0  0  0  0
    5.7978    0.8440   21.1900 C   0  0  0  0  0  0  0  0  0  0  0  0
    7.4862   -1.7361   21.5740 C   0  0  0  0  0  0  0  0  0  0  0  0
   10.2044   -1.0790   22.2769 C   0  0  0  0  0  0  0  0  0  0  0  0
    7.5001    0.3350   17.2867 N   0  0  0  0  0  0  0  0  0  0  0  0
    8.2255   -0.7439   20.7778 N   0  0  0  0  0  0  0  0  0  0  0  0
   10.2269    0.4279   20.4256 O   0  0  0  0  0  0  0  0  0  0  0  0
   14.8144   -1.3621   24.6660 Cl  0  0  0  0  0  0  0  0  0  0  0  0
   14.1423   -1.6327   19.8629 H   0  0  0  0  0  0  0  0  0  0  0  0
   11.6875   -1.3821   20.0232 H   0  0  0  0  0  0  0  0  0  0  0  0
   15.5317   -1.6257   21.9036 H   0  0  0  0  0  0  0  0  0  0  0  0
    4.8985    1.8500   18.8398 H   0  0  0  0  0  0  0  0  0  0  0  0
   11.9903   -1.1134   24.3053 H   0  0  0  0  0  0  0  0  0  0  0  0
    5.9472    1.5083   16.6052 H   0  0  0  0  0  0  0  0  0  0  0  0
    8.9574   -0.8089   18.1796 H   0  0  0  0  0  0  0  0  0  0  0  0
    5.0694    0.0505   21.3934 H   0  0  0  0  0  0  0  0  0  0  0  0
    6.5645    0.8243   21.9743 H   0  0  0  0  0  0  0  0  0  0  0  0
    5.2892    1.8132   21.2650 H   0  0  0  0  0  0  0  0  0  0  0  0
    7.6313   -2.7366   21.1405 H   0  0  0  0  0  0  0  0  0  0  0  0
    7.8594   -1.7273   22.6087 H   0  0  0  0  0  0  0  0  0  0  0  0
    6.4150   -1.4860   21.5684 H   0  0  0  0  0  0  0  0  0  0  0  0
    9.7424   -2.0728   22.3968 H   0  0  0  0  0  0  0  0  0  0  0  0
    9.9500   -0.4938   23.1760 H   0  0  0  0  0  0  0  0  0  0  0  0
  1  2  2  0  0  0  0
  1  3  1  0  0  0  0
  2  8  1  0  0  0  0
  3 11  2  0  0  0  0
  4  6  2  0  0  0  0
  4  9  1  0  0  0  0
  5  8  2  0  0  0  0
  5 11  1  0  0  0  0
  6 16  1  0  0  0  0
  7 10  1  0  0  0  0
  7 16  2  0  0  0  0
  8 15  1  0  0  0  0
  9 10  2  0  0  0  0
  9 13  1  0  0  0  0
 10 17  1  0  0  0  0
 11 19  1  0  0  0  0
 12 15  1  0  0  0  0
 12 17  1  0  0  0  0
 12 18  2  0  0  0  0
 14 17  1  0  0  0  0
  1 20  1  0  0  0  0
  2 21  1  0  0  0  0
  3 22  1  0  0  0  0
  4 23  1  0  0  0  0
  5 24  1  0  0  0  0
  6 25  1  0  0  0  0
  7 26  1  0  0  0  0
 13 27  1  0  0  0  0
 13 28  1  0  0  0  0
 13 29  1  0  0  0  0
 14 30  1  0  0  0  0
 14 31  1  0  0  0  0
 14 32  1  0  0  0  0
 15 33  1  0  0  0  0
 15 34  1  0  0  0  0
M  END
> <series>
3-aminopyridine-like

> <r_inhibition_at_20_uM>

> <r_inhibition_at_50_uM>
0.0

> <r_IC50>

> <f_inhibition_at_20_uM>
5.9736555000000005

> <f_inhibition_at_50_uM>
15.100115

> <f_avg_IC50>

> <f_avg_pIC50>

> <ASSAYED>
True

> <Hybrid2>
-11.266683

> <docked_fragment>
x0678

> <Mpro-_dock>
-7.776706

> <site>
active-noncovalent

$$$$
JAN-GHE-83b26c96-16
  -OEChem-07042000473D

 37 38  0     0  0  0  0  0  0999 V2000
   12.9613   -0.1920   24.6512 C   0  0  0  0  0  0  0  0  0  0  0  0
    5.9412    1.2758   19.0311 C   0  0  0  0  0  0  0  0  0  0  0  0
   11.6925   -0.4874   24.1527 C   0  0  0  0  0  0  0  0  0  0  0  0
    6.5035    0.8186   20.2178 C   0  0  0  0  0  0  0  0  0  0  0  0
   14.0943   -0.7188   24.0311 C   0  0  0  0  0  0  0  0  0  0  0  0
   12.6897   -1.8366   22.4141 C   0  0  0  0  0  0  0  0  0  0  0  0
    6.5711    0.9403   17.8435 C   0  0  0  0  0  0  0  0  0  0  0  0
    8.2148   -0.2301   18.9419 C   0  0  0  0  0  0  0  0  0  0  0  0
   11.5567   -1.3097   23.0342 C   0  0  0  0  0  0  0  0  0  0  0  0
    7.6621    0.0507   20.1810 C   0  0  0  0  0  0  0  0  0  0  0  0
   13.9585   -1.5411   22.9126 C   0  0  0  0  0  0  0  0  0  0  0  0
    9.6976   -0.6361   21.4458 C   0  0  0  0  0  0  0  0  0  0  0  0
    6.9247    0.1295   24.9314 C   0  0  0  0  0  0  0  0  0  0  0  0
   10.1829   -1.6301   22.4959 C   0  0  0  0  0  0  0  0  0  0  0  0
    7.8033    0.3205   23.7033 C   0  0  0  0  0  0  0  0  0  0  0  0
    7.4317   -0.6178   22.5615 C   0  0  0  0  0  0  0  0  0  0  0  0
    7.6974    0.1965   17.7680 N   0  0  0  0  0  0  0  0  0  0  0  0
    8.2786   -0.4455   21.4138 N   0  0  0  0  0  0  0  0  0  0  0  0
   10.5206   -0.0492   20.7380 O   0  0  0  0  0  0  0  0  0  0  0  0
   15.3567   -2.1917   22.1487 Cl  0  0  0  0  0  0  0  0  0  0  0  0
   13.0666    0.4483   25.5222 H   0  0  0  0  0  0  0  0  0  0  0  0
    5.0384    1.8758   19.0359 H   0  0  0  0  0  0  0  0  0  0  0  0
   10.8152   -0.0727   24.6422 H   0  0  0  0  0  0  0  0  0  0  0  0
    6.0311    1.0663   21.1647 H   0  0  0  0  0  0  0  0  0  0  0  0
   15.0769   -0.4803   24.4307 H   0  0  0  0  0  0  0  0  0  0  0  0
   12.5785   -2.4768   21.5420 H   0  0  0  0  0  0  0  0  0  0  0  0
    6.1727    1.2732   16.8908 H   0  0  0  0  0  0  0  0  0  0  0  0
    9.1186   -0.8249   18.8487 H   0  0  0  0  0  0  0  0  0  0  0  0
    5.8711    0.3037   24.6908 H   0  0  0  0  0  0  0  0  0  0  0  0
    7.0210   -0.8941   25.3078 H   0  0  0  0  0  0  0  0  0  0  0  0
    7.2118    0.8116   25.7376 H   0  0  0  0  0  0  0  0  0  0  0  0
   10.2090   -2.6335   22.0546 H   0  0  0  0  0  0  0  0  0  0  0  0
    9.4715   -1.6473   23.3301 H   0  0  0  0  0  0  0  0  0  0  0  0
    8.8462    0.1374   23.9868 H   0  0  0  0  0  0  0  0  0  0  0  0
    7.7358    1.3632   23.3708 H   0  0  0  0  0  0  0  0  0  0  0  0
    7.5366   -1.6588   22.8831 H   0  0  0  0  0  0  0  0  0  0  0  0
    6.3967   -0.4630   22.2407 H   0  0  0  0  0  0  0  0  0  0  0  0
  1  3  2  0  0  0  0
  1  5  1  0  0  0  0
  2  4  2  0  0  0  0
  2  7  1  0  0  0  0
  3  9  1  0  0  0  0
  4 10  1  0  0  0  0
  5 11  2  0  0  0  0
  6  9  2  0  0  0  0
  6 11  1  0  0  0  0
  7 17  2  0  0  0  0
  8 10  2  0  0  0  0
  8 17  1  0  0  0  0
  9 14  1  0  0  0  0
 10 18  1  0  0  0  0
 11 20  1  0  0  0  0
 12 14  1  0  0  0  0
 12 18  1  0  0  0  0
 12 19  2  0  0  0  0
 13 15  1  0  0  0  0
 15 16  1  0  0  0  0
 16 18  1  0  0  0  0
  1 21  1  0  0  0  0
  2 22  1  0  0  0  0
  3 23  1  0  0  0  0
  4 24  1  0  0  0  0
  5 25  1  0  0  0  0
  6 26  1  0  0  0  0
  7 27  1  0  0  0  0
  8 28  1  0  0  0  0
 13 29  1  0  0  0  0
 13 30  1  0  0  0  0
 13 31  1  0  0  0  0
 14 32  1  0  0  0  0
 14 33  1  0  0  0  0
 15 34  1  0  0  0  0
 15 35  1  0  0  0  0
 16 36  1  0  0  0  0
 16 37  1  0  0  0  0
M  END
> <series>
3-aminopyridine-like

> <r_inhibition_at_20_uM>

> <r_inhibition_at_50_uM>
36.23194291696747

> <r_IC50>

> <f_inhibition_at_20_uM>
2.279198

> <f_inhibition_at_50_uM>
3.24693005

> <f_avg_IC50>

> <f_avg_pIC50>

> <ASSAYED>
True

> <Hybrid2>
-11.258343

> <docked_fragment>
x0678

> <Mpro-_dock>
-8.242537

> <site>
active-noncovalent

$$$$
BAR-COM-0f94fc3d-41
  -OEChem-07042000473D

 35 37  0     0  0  0  0  0  0999 V2000
   11.6327   -0.0116   24.8042 C   0  0  0  0  0  0  0  0  0  0  0  0
   12.6171   -0.2013   23.8275 C   0  0  0  0  0  0  0  0  0  0  0  0
    6.0534    1.2698   19.1996 C   0  0  0  0  0  0  0  0  0  0  0  0
    9.2250   -0.7563   25.4769 C   0  0  0  0  0  0  0  0  0  0  0  0
   11.1987   -1.7658   22.6255 C   0  0  0  0  0  0  0  0  0  0  0  0
    6.5759    0.8354   17.9921 C   0  0  0  0  0  0  0  0  0  0  0  0
    7.6226   -0.9521   18.9857 C   0  0  0  0  0  0  0  0  0  0  0  0
    8.3549   -1.6280   24.8638 C   0  0  0  0  0  0  0  0  0  0  0  0
   10.4122   -0.7070   24.6939 C   0  0  0  0  0  0  0  0  0  0  0  0
    6.3503    0.5321   20.3402 C   0  0  0  0  0  0  0  0  0  0  0  0
   10.2237   -1.5663   23.6093 C   0  0  0  0  0  0  0  0  0  0  0  0
    7.1493   -0.6014   20.2399 C   0  0  0  0  0  0  0  0  0  0  0  0
   12.4013   -1.0653   22.7558 C   0  0  0  0  0  0  0  0  0  0  0  0
    8.2644   -2.5342   21.4073 C   0  0  0  0  0  0  0  0  0  0  0  0
    5.8006    0.9780   21.6554 C   0  0  0  0  0  0  0  0  0  0  0  0
    8.3631   -3.0604   22.8272 C   0  0  0  0  0  0  0  0  0  0  0  0
    7.3556   -0.2604   17.8553 N   0  0  0  0  0  0  0  0  0  0  0  0
    8.9663   -2.1117   23.7383 N   0  0  0  0  0  0  0  0  0  0  0  0
    7.4792   -1.3852   21.3709 N   0  0  0  0  0  0  0  0  0  0  0  0
    8.8217   -3.0854   20.4638 O   0  0  0  0  0  0  0  0  0  0  0  0
   13.6357   -1.2771   21.5714 Cl  0  0  0  0  0  0  0  0  0  0  0  0
   11.8136    0.6648   25.6344 H   0  0  0  0  0  0  0  0  0  0  0  0
   13.5561    0.3395   23.9219 H   0  0  0  0  0  0  0  0  0  0  0  0
    5.4334    2.1587   19.2439 H   0  0  0  0  0  0  0  0  0  0  0  0
    9.0274   -0.2129   26.3909 H   0  0  0  0  0  0  0  0  0  0  0  0
   11.0236   -2.4407   21.7932 H   0  0  0  0  0  0  0  0  0  0  0  0
    6.3740    1.3759   17.0731 H   0  0  0  0  0  0  0  0  0  0  0  0
    8.2505   -1.8266   18.8429 H   0  0  0  0  0  0  0  0  0  0  0  0
    7.3559   -1.9417   25.1353 H   0  0  0  0  0  0  0  0  0  0  0  0
    4.8234    0.5153   21.8352 H   0  0  0  0  0  0  0  0  0  0  0  0
    6.4730    0.7064   22.4785 H   0  0  0  0  0  0  0  0  0  0  0  0
    5.6824    2.0683   21.6863 H   0  0  0  0  0  0  0  0  0  0  0  0
    7.3626   -3.3025   23.2038 H   0  0  0  0  0  0  0  0  0  0  0  0
    8.9655   -3.9759   22.8436 H   0  0  0  0  0  0  0  0  0  0  0  0
    7.0917   -1.0593   22.2540 H   0  0  0  0  0  0  0  0  0  0  0  0
  1  2  2  0  0  0  0
  1  9  1  0  0  0  0
  2 13  1  0  0  0  0
  3  6  2  0  0  0  0
  3 10  1  0  0  0  0
  4  8  2  0  0  0  0
  4  9  1  0  0  0  0
  5 11  1  0  0  0  0
  5 13  2  0  0  0  0
  6 17  1  0  0  0  0
  7 12  1  0  0  0  0
  7 17  2  0  0  0  0
  8 18  1  0  0  0  0
  9 11  2  0  0  0  0
 10 12  2  0  0  0  0
 10 15  1  0  0  0  0
 11 18  1  0  0  0  0
 12 19  1  0  0  0  0
 13 21  1  0  0  0  0
 14 16  1  0  0  0  0
 14 19  1  0  0  0  0
 14 20  2  0  0  0  0
 16 18  1  0  0  0  0
  1 22  1  0  0  0  0
  2 23  1  0  0  0  0
  3 24  1  0  0  0  0
  4 25  1  0  0  0  0
  5 26  1  0  0  0  0
  6 27  1  0  0  0  0
  7 28  1  0  0  0  0
  8 29  1  0  0  0  0
 15 30  1  0  0  0  0
 15 31  1  0  0  0  0
 15 32  1  0  0  0  0
 16 33  1  0  0  0  0
 16 34  1  0  0  0  0
 19 35  1  0  0  0  0
M  END
> <series>
3-aminopyridine-like

> <r_inhibition_at_20_uM>

> <r_inhibition_at_50_uM>
77.42

> <r_IC50>

> <f_inhibition_at_20_uM>
30.592015000000004

> <f_inhibition_at_50_uM>
27.01315

> <f_avg_IC50>

> <f_avg_pIC50>

> <ASSAYED>
True

> <Hybrid2>
-11.236184

> <docked_fragment>
x0678

> <Mpro-_dock>
-7.088857

> <site>
active-noncovalent

$$$$
JAN-GHE-83b26c96-2
  -OEChem-07042000473D

 38 39  0     1  0  0  0  0  0999 V2000
   11.5255    0.1231   24.9970 C   0  0  0  0  0  0  0  0  0  0  0  0
   10.2868   -0.3012   24.5161 C   0  0  0  0  0  0  0  0  0  0  0  0
   12.7002   -0.3843   24.4418 C   0  0  0  0  0  0  0  0  0  0  0  0
    5.5258    1.4014   18.8740 C   0  0  0  0  0  0  0  0  0  0  0  0
   11.3976   -1.7403   22.9248 C   0  0  0  0  0  0  0  0  0  0  0  0
    6.2185    1.0512   17.7262 C   0  0  0  0  0  0  0  0  0  0  0  0
    7.7130   -0.2294   18.9113 C   0  0  0  0  0  0  0  0  0  0  0  0
   10.2229   -1.2329   23.4800 C   0  0  0  0  0  0  0  0  0  0  0  0
    5.9766    0.8926   20.0869 C   0  0  0  0  0  0  0  0  0  0  0  0
    7.0905    0.0609   20.1146 C   0  0  0  0  0  0  0  0  0  0  0  0
   12.6363   -1.3160   23.4057 C   0  0  0  0  0  0  0  0  0  0  0  0
    4.1694    2.0474   21.4003 C   0  0  0  0  0  0  0  0  0  0  0  0
    8.6934   -1.3203   21.4822 C   0  0  0  0  0  0  0  0  0  0  0  0
    3.7385    2.1612   22.8410 C   0  0  0  0  0  0  0  0  0  0  0  0
    8.6848   -3.1978   23.1810 C   0  0  0  0  0  0  0  0  0  0  0  0
    8.8981   -1.6870   22.9671 C   0  0  1  0  0  0  0  0  0  0  0  0
    7.3044    0.2461   17.7136 N   0  0  0  0  0  0  0  0  0  0  0  0
    5.2968    1.2296   21.2607 N   0  0  0  0  0  0  0  0  0  0  0  0
    7.5915   -0.4839   21.3207 N   0  0  0  0  0  0  0  0  0  0  0  0
    3.5534    2.6284   20.5126 O   0  0  0  0  0  0  0  0  0  0  0  0
    9.4513   -1.7240   20.6048 O   0  0  0  0  0  0  0  0  0  0  0  0
   14.0860   -1.9425   22.7219 Cl  0  0  0  0  0  0  0  0  0  0  0  0
   11.5749    0.8485   25.8040 H   0  0  0  0  0  0  0  0  0  0  0  0
    9.3766    0.0994   24.9547 H   0  0  0  0  0  0  0  0  0  0  0  0
   13.6587   -0.0448   24.8269 H   0  0  0  0  0  0  0  0  0  0  0  0
    4.6601    2.0530   18.8154 H   0  0  0  0  0  0  0  0  0  0  0  0
   11.3424   -2.4662   22.1168 H   0  0  0  0  0  0  0  0  0  0  0  0
    5.9072    1.4226   16.7554 H   0  0  0  0  0  0  0  0  0  0  0  0
    8.5871   -0.8725   18.8680 H   0  0  0  0  0  0  0  0  0  0  0  0
    4.2426    3.0098   23.3122 H   0  0  0  0  0  0  0  0  0  0  0  0
    4.0040    1.2474   23.3801 H   0  0  0  0  0  0  0  0  0  0  0  0
    2.6550    2.3019   22.8966 H   0  0  0  0  0  0  0  0  0  0  0  0
    9.4552   -3.7877   22.6720 H   0  0  0  0  0  0  0  0  0  0  0  0
    8.7175   -3.4662   24.2429 H   0  0  0  0  0  0  0  0  0  0  0  0
    7.7090   -3.5059   22.7893 H   0  0  0  0  0  0  0  0  0  0  0  0
    8.0750   -1.1882   23.5165 H   0  0  0  0  0  0  0  0  0  0  0  0
    5.6665    0.8293   22.1295 H   0  0  0  0  0  0  0  0  0  0  0  0
    7.0783   -0.2227   22.1598 H   0  0  0  0  0  0  0  0  0  0  0  0
  1  2  2  0  0  0  0
  1  3  1  0  0  0  0
  2  8  1  0  0  0  0
  3 11  2  0  0  0  0
  4  6  2  0  0  0  0
  4  9  1  0  0  0  0
  5  8  2  0  0  0  0
  5 11  1  0  0  0  0
  6 17  1  0  0  0  0
  7 10  1  0  0  0  0
  7 17  2  0  0  0  0
  8 16  1  0  0  0  0
  9 10  2  0  0  0  0
  9 18  1  0  0  0  0
 10 19  1  0  0  0  0
 11 22  1  0  0  0  0
 12 14  1  0  0  0  0
 12 18  1  0  0  0  0
 12 20  2  0  0  0  0
 13 16  1  0  0  0  0
 13 19  1  0  0  0  0
 13 21  2  0  0  0  0
 15 16  1  0  0  0  0
  1 23  1  0  0  0  0
  2 24  1  0  0  0  0
  3 25  1  0  0  0  0
  4 26  1  0  0  0  0
  5 27  1  0  0  0  0
  6 28  1  0  0  0  0
  7 29  1  0  0  0  0
 14 30  1  0  0  0  0
 14 31  1  0  0  0  0
 14 32  1  0  0  0  0
 15 33  1  0  0  0  0
 15 34  1  0  0  0  0
 15 35  1  0  0  0  0
 16 36  1  0  0  0  0
 18 37  1  0  0  0  0
 19 38  1  0  0  0  0
M  END
> <series>
3-aminopyridine-like

> <r_inhibition_at_20_uM>

> <r_inhibition_at_50_uM>
21.545250815

> <r_IC50>

> <f_inhibition_at_20_uM>
14.44519

> <f_inhibition_at_50_uM>
44.615305

> <f_avg_IC50>

> <f_avg_pIC50>

> <ASSAYED>
True

> <Hybrid2>
-11.199787

> <docked_fragment>
x0678

> <Mpro-_dock>
-4.90173

> <site>
active-noncovalent

$$$$
JAN-GHE-83b26c96-3
  -OEChem-07042000473D

 38 40  0     1  0  0  0  0  0999 V2000
   11.2759    0.0690   25.1120 C   0  0  0  0  0  0  0  0  0  0  0  0
   10.0514   -0.3420   24.5856 C   0  0  0  0  0  0  0  0  0  0  0  0
   12.4636   -0.4721   24.6198 C   0  0  0  0  0  0  0  0  0  0  0  0
    4.6858    2.0373   23.0090 C   0  0  0  0  0  0  0  0  0  0  0  0
    5.5795    1.3268   18.6996 C   0  0  0  0  0  0  0  0  0  0  0  0
   11.2022   -1.8355   23.0749 C   0  0  0  0  0  0  0  0  0  0  0  0
    3.5988    1.4310   22.3512 C   0  0  0  0  0  0  0  0  0  0  0  0
    6.3169    0.9373   17.5931 C   0  0  0  0  0  0  0  0  0  0  0  0
    7.7298   -0.3437   18.8741 C   0  0  0  0  0  0  0  0  0  0  0  0
    5.7419    1.8780   22.1455 C   0  0  0  0  0  0  0  0  0  0  0  0
   10.0145   -1.2943   23.5670 C   0  0  0  0  0  0  0  0  0  0  0  0
    5.9640    0.8376   19.9430 C   0  0  0  0  0  0  0  0  0  0  0  0
    7.0588   -0.0141   20.0406 C   0  0  0  0  0  0  0  0  0  0  0  0
   12.4268   -1.4243   23.6013 C   0  0  0  0  0  0  0  0  0  0  0  0
    8.5727   -1.3956   21.5058 C   0  0  0  0  0  0  0  0  0  0  0  0
    8.4526   -3.2359   23.2407 C   0  0  0  0  0  0  0  0  0  0  0  0
    8.7048   -1.7343   23.0055 C   0  0  1  0  0  0  0  0  0  0  0  0
    7.3859    0.1117   17.6485 N   0  0  0  0  0  0  0  0  0  0  0  0
    3.9336    0.9245   21.1615 N   0  0  0  0  0  0  0  0  0  0  0  0
    5.2428    1.2122   21.0649 N   0  0  0  0  0  0  0  0  0  0  0  0
    7.4956   -0.5423   21.2785 N   0  0  0  0  0  0  0  0  0  0  0  0
    9.3601   -1.8322   20.6712 O   0  0  0  0  0  0  0  0  0  0  0  0
   13.8924   -2.0924   22.9952 Cl  0  0  0  0  0  0  0  0  0  0  0  0
   11.3042    0.8105   25.9053 H   0  0  0  0  0  0  0  0  0  0  0  0
    9.1309    0.0848   24.9753 H   0  0  0  0  0  0  0  0  0  0  0  0
   13.4108   -0.1425   25.0398 H   0  0  0  0  0  0  0  0  0  0  0  0
    4.7016    2.5226   23.9737 H   0  0  0  0  0  0  0  0  0  0  0  0
    4.7310    1.9937   18.5837 H   0  0  0  0  0  0  0  0  0  0  0  0
   11.1682   -2.5773   22.2803 H   0  0  0  0  0  0  0  0  0  0  0  0
    2.5765    1.3370   22.6887 H   0  0  0  0  0  0  0  0  0  0  0  0
    6.0581    1.2910   16.6006 H   0  0  0  0  0  0  0  0  0  0  0  0
    8.5918   -1.0045   18.8844 H   0  0  0  0  0  0  0  0  0  0  0  0
    6.7790    2.1793   22.2134 H   0  0  0  0  0  0  0  0  0  0  0  0
    9.2328   -3.8510   22.7784 H   0  0  0  0  0  0  0  0  0  0  0  0
    8.4334   -3.4821   24.3083 H   0  0  0  0  0  0  0  0  0  0  0  0
    7.4890   -3.5339   22.8126 H   0  0  0  0  0  0  0  0  0  0  0  0
    7.8685   -1.2085   23.5076 H   0  0  0  0  0  0  0  0  0  0  0  0
    6.9514   -0.2536   22.0887 H   0  0  0  0  0  0  0  0  0  0  0  0
  1  2  2  0  0  0  0
  1  3  1  0  0  0  0
  2 11  1  0  0  0  0
  3 14  2  0  0  0  0
  4  7  1  0  0  0  0
  4 10  2  0  0  0  0
  5  8  2  0  0  0  0
  5 12  1  0  0  0  0
  6 11  2  0  0  0  0
  6 14  1  0  0  0  0
  7 19  2  0  0  0  0
  8 18  1  0  0  0  0
  9 13  1  0  0  0  0
  9 18  2  0  0  0  0
 10 20  1  0  0  0  0
 11 17  1  0  0  0  0
 12 13  2  0  0  0  0
 12 20  1  0  0  0  0
 13 21  1  0  0  0  0
 14 23  1  0  0  0  0
 15 17  1  0  0  0  0
 15 21  1  0  0  0  0
 15 22  2  0  0  0  0
 16 17  1  0  0  0  0
 19 20  1  0  0  0  0
  1 24  1  0  0  0  0
  2 25  1  0  0  0  0
  3 26  1  0  0  0  0
  4 27  1  0  0  0  0
  5 28  1  0  0  0  0
  6 29  1  0  0  0  0
  7 30  1  0  0  0  0
  8 31  1  0  0  0  0
  9 32  1  0  0  0  0
 10 33  1  0  0  0  0
 16 34  1  0  0  0  0
 16 35  1  0  0  0  0
 16 36  1  0  0  0  0
 17 37  1  0  0  0  0
 21 38  1  0  0  0  0
M  END
> <series>
3-aminopyridine-like

> <r_inhibition_at_20_uM>

> <r_inhibition_at_50_uM>
4.0260285285

> <r_IC50>

> <f_inhibition_at_20_uM>
11.2887

> <f_inhibition_at_50_uM>
38.86818

> <f_avg_IC50>

> <f_avg_pIC50>

> <ASSAYED>
True

> <Hybrid2>
-11.191687

> <docked_fragment>
x0678

> <Mpro-_dock>
-5.770212

> <site>
active-noncovalent

$$$$
DAR-DIA-842b4336-13
  -OEChem-07042000473D

 25 26  0     0  0  0  0  0  0999 V2000
    5.7065    1.1906   18.9682 C   0  0  0  0  0  0  0  0  0  0  0  0
    6.3896    0.9267   20.1502 C   0  0  0  0  0  0  0  0  0  0  0  0
   12.1924   -1.5808   22.1343 C   0  0  0  0  0  0  0  0  0  0  0  0
   13.4705   -1.9739   22.6263 C   0  0  0  0  0  0  0  0  0  0  0  0
    6.3537    0.9258   17.7721 C   0  0  0  0  0  0  0  0  0  0  0  0
    8.2396    0.1830   18.8537 C   0  0  0  0  0  0  0  0  0  0  0  0
    7.6808    0.4132   20.1005 C   0  0  0  0  0  0  0  0  0  0  0  0
   11.5063   -0.8021   23.0401 C   0  0  0  0  0  0  0  0  0  0  0  0
   13.7126   -1.4804   23.8896 C   0  0  0  0  0  0  0  0  0  0  0  0
    9.7806    0.1817   21.4725 C   0  0  0  0  0  0  0  0  0  0  0  0
   10.1363   -0.1911   22.9031 C   0  0  0  0  0  0  0  0  0  0  0  0
    7.6071    0.4270   17.6840 N   0  0  0  0  0  0  0  0  0  0  0  0
    8.3899    0.1391   21.2675 N   0  0  0  0  0  0  0  0  0  0  0  0
   10.6331    0.4729   20.6396 O   0  0  0  0  0  0  0  0  0  0  0  0
   12.4023   -0.5477   24.4771 S   0  0  0  0  0  0  0  0  0  0  0  0
   15.1114   -1.7037   24.8543 Cl  0  0  0  0  0  0  0  0  0  0  0  0
    4.6992    1.5910   18.9830 H   0  0  0  0  0  0  0  0  0  0  0  0
    5.9069    1.1246   21.1035 H   0  0  0  0  0  0  0  0  0  0  0  0
   11.7999   -1.8575   21.1640 H   0  0  0  0  0  0  0  0  0  0  0  0
   14.1724   -2.5878   22.0761 H   0  0  0  0  0  0  0  0  0  0  0  0
    5.8642    1.1153   16.8225 H   0  0  0  0  0  0  0  0  0  0  0  0
    9.2439   -0.2171   18.7503 H   0  0  0  0  0  0  0  0  0  0  0  0
    9.3812   -0.8916   23.2819 H   0  0  0  0  0  0  0  0  0  0  0  0
   10.0713    0.7081   23.5288 H   0  0  0  0  0  0  0  0  0  0  0  0
    7.8246   -0.1285   22.0830 H   0  0  0  0  0  0  0  0  0  0  0  0
  1  2  2  0  0  0  0
  1  5  1  0  0  0  0
  2  7  1  0  0  0  0
  3  4  1  0  0  0  0
  3  8  2  0  0  0  0
  4  9  2  0  0  0  0
  5 12  2  0  0  0  0
  6  7  2  0  0  0  0
  6 12  1  0  0  0  0
  7 13  1  0  0  0  0
  8 11  1  0  0  0  0
  8 15  1  0  0  0  0
  9 15  1  0  0  0  0
  9 16  1  0  0  0  0
 10 11  1  0  0  0  0
 10 13  1  0  0  0  0
 10 14  2  0  0  0  0
  1 17  1  0  0  0  0
  2 18  1  0  0  0  0
  3 19  1  0  0  0  0
  4 20  1  0  0  0  0
  5 21  1  0  0  0  0
  6 22  1  0  0  0  0
 11 23  1  0  0  0  0
 11 24  1  0  0  0  0
 13 25  1  0  0  0  0
M  END
> <series>
3-aminopyridine-like

> <r_inhibition_at_20_uM>
0.0

> <r_inhibition_at_50_uM>

> <r_IC50>

> <f_inhibition_at_20_uM>
0.92202215

> <f_inhibition_at_50_uM>
11.50041

> <f_avg_IC50>

> <f_avg_pIC50>

> <ASSAYED>
True

> <Hybrid2>
-11.181113

> <docked_fragment>
x0678

> <Mpro-_dock>
-6.440366

> <site>
active-noncovalent

$$$$
EDG-MED-0da5ad92-9
  -OEChem-07042000473D

 37 38  0     1  0  0  0  0  0999 V2000
    5.7675    1.0771   19.1571 C   0  0  0  0  0  0  0  0  0  0  0  0
    6.4035    0.6809   17.9916 C   0  0  0  0  0  0  0  0  0  0  0  0
    8.3808    0.2948   19.0961 C   0  0  0  0  0  0  0  0  0  0  0  0
    6.5051    1.0704   20.3357 C   0  0  0  0  0  0  0  0  0  0  0  0
    7.8374    0.6732   20.3132 C   0  0  0  0  0  0  0  0  0  0  0  0
   10.0041    0.8445   21.5853 C   0  0  0  0  0  0  0  0  0  0  0  0
   12.9551   -0.9821   22.0783 C   0  0  0  0  0  0  0  0  0  0  0  0
   11.5115   -1.4428   22.2798 C   0  0  0  0  0  0  0  0  0  0  0  0
   13.7496   -1.0389   23.3730 C   0  0  0  0  0  0  0  0  0  0  0  0
   11.6478   -0.7502   24.7029 C   0  0  0  0  0  0  0  0  0  0  0  0
   10.8050   -0.7030   23.4266 C   0  0  1  0  0  0  0  0  0  0  0  0
    5.8446    1.4934   21.6067 C   0  0  0  0  0  0  0  0  0  0  0  0
   10.4465    0.7335   23.0332 C   0  0  0  0  0  0  0  0  0  0  0  0
    7.6958    0.2885   17.9306 N   0  0  0  0  0  0  0  0  0  0  0  0
    8.6295    0.6489   21.4857 N   0  0  0  0  0  0  0  0  0  0  0  0
   13.0339   -0.2638   24.4291 N   0  3  0  0  0  0  0  0  0  0  0  0
   10.7922    1.0760   20.6744 O   0  0  0  0  0  0  0  0  0  0  0  0
    4.7266    1.3816   19.1405 H   0  0  0  0  0  0  0  0  0  0  0  0
    5.8723    0.6685   17.0457 H   0  0  0  0  0  0  0  0  0  0  0  0
    9.4152   -0.0256   19.0142 H   0  0  0  0  0  0  0  0  0  0  0  0
   13.4370   -1.6128   21.3205 H   0  0  0  0  0  0  0  0  0  0  0  0
   12.9616    0.0422   21.6884 H   0  0  0  0  0  0  0  0  0  0  0  0
   10.9523   -1.2936   21.3405 H   0  0  0  0  0  0  0  0  0  0  0  0
   11.5007   -2.5282   22.4715 H   0  0  0  0  0  0  0  0  0  0  0  0
   13.8469   -2.0658   23.7399 H   0  0  0  0  0  0  0  0  0  0  0  0
   14.7474   -0.5987   23.2651 H   0  0  0  0  0  0  0  0  0  0  0  0
   11.2347   -0.1163   25.5014 H   0  0  0  0  0  0  0  0  0  0  0  0
   11.7446   -1.7754   25.0864 H   0  0  0  0  0  0  0  0  0  0  0  0
    9.8503   -1.2357   23.6300 H   0  0  0  0  0  0  0  0  0  0  0  0
    5.3894    0.6292   22.1041 H   0  0  0  0  0  0  0  0  0  0  0  0
    6.5655    1.9529   22.2941 H   0  0  0  0  0  0  0  0  0  0  0  0
    5.0631    2.2399   21.4178 H   0  0  0  0  0  0  0  0  0  0  0  0
   11.3194    1.3735   23.1865 H   0  0  0  0  0  0  0  0  0  0  0  0
    9.6387    1.0890   23.6783 H   0  0  0  0  0  0  0  0  0  0  0  0
    8.1226    0.4664   22.3493 H   0  0  0  0  0  0  0  0  0  0  0  0
   13.5818   -0.2829   25.3007 H   0  0  0  0  0  0  0  0  0  0  0  0
   12.9931    0.7260   24.1501 H   0  0  0  0  0  0  0  0  0  0  0  0
  1  2  2  0  0  0  0
  1  4  1  0  0  0  0
  2 14  1  0  0  0  0
  3  5  1  0  0  0  0
  3 14  2  0  0  0  0
  4  5  2  0  0  0  0
  4 12  1  0  0  0  0
  5 15  1  0  0  0  0
  6 13  1  0  0  0  0
  6 15  1  0  0  0  0
  6 17  2  0  0  0  0
  7  8  1  0  0  0  0
  7  9  1  0  0  0  0
  8 11  1  0  0  0  0
  9 16  1  0  0  0  0
 10 11  1  0  0  0  0
 10 16  1  0  0  0  0
 11 13  1  0  0  0  0
  1 18  1  0  0  0  0
  2 19  1  0  0  0  0
  3 20  1  0  0  0  0
  7 21  1  0  0  0  0
  7 22  1  0  0  0  0
  8 23  1  0  0  0  0
  8 24  1  0  0  0  0
  9 25  1  0  0  0  0
  9 26  1  0  0  0  0
 10 27  1  0  0  0  0
 10 28  1  0  0  0  0
 11 29  1  0  0  0  0
 12 30  1  0  0  0  0
 12 31  1  0  0  0  0
 12 32  1  0  0  0  0
 13 33  1  0  0  0  0
 13 34  1  0  0  0  0
 15 35  1  0  0  0  0
 16 36  1  0  0  0  0
 16 37  1  0  0  0  0
M  CHG  1  16   1
M  END
> <series>
3-aminopyridine-like

> <r_inhibition_at_20_uM>

> <r_inhibition_at_50_uM>
0.0

> <r_IC50>

> <f_inhibition_at_20_uM>
-1.9083599999999998

> <f_inhibition_at_50_uM>
16.688875

> <f_avg_IC50>

> <f_avg_pIC50>

> <ASSAYED>
True

> <Hybrid2>
-11.163149

> <docked_fragment>
x0678

> <Mpro-_dock>
-6.521945

> <site>
active-noncovalent

$$$$
GAB-REV-70cc3ca5-18
  -OEChem-07042000473D

 34 36  0     0  0  0  0  0  0999 V2000
   10.3252   -1.6094   24.8764 C   0  0  0  0  0  0  0  0  0  0  0  0
   11.5689   -1.3172   25.4459 C   0  0  0  0  0  0  0  0  0  0  0  0
    5.6761    1.3233   19.0420 C   0  0  0  0  0  0  0  0  0  0  0  0
   11.3079   -1.8196   22.6588 C   0  0  0  0  0  0  0  0  0  0  0  0
    6.3452    0.9954   17.8738 C   0  0  0  0  0  0  0  0  0  0  0  0
    7.7629   -0.4335   18.9812 C   0  0  0  0  0  0  0  0  0  0  0  0
   14.6320   -1.1373   23.5824 C   0  0  0  0  0  0  0  0  0  0  0  0
   10.1947   -1.8566   23.5079 C   0  0  0  0  0  0  0  0  0  0  0  0
    6.0976    0.7238   20.2236 C   0  0  0  0  0  0  0  0  0  0  0  0
   12.5652   -1.5274   23.2139 C   0  0  0  0  0  0  0  0  0  0  0  0
   12.6635   -1.2857   24.5813 C   0  0  0  0  0  0  0  0  0  0  0  0
    7.1604   -0.1724   20.2013 C   0  0  0  0  0  0  0  0  0  0  0  0
    8.6727   -1.7199   21.4910 C   0  0  0  0  0  0  0  0  0  0  0  0
    5.3945    1.0596   21.4978 C   0  0  0  0  0  0  0  0  0  0  0  0
    8.8493   -2.1666   22.9392 C   0  0  0  0  0  0  0  0  0  0  0  0
    7.3814    0.1294   17.8127 N   0  0  0  0  0  0  0  0  0  0  0  0
   13.7980   -1.4310   22.6102 N   0  0  0  0  0  0  0  0  0  0  0  0
   13.9964   -1.0391   24.7889 N   0  0  0  0  0  0  0  0  0  0  0  0
    7.6260   -0.8084   21.3767 N   0  0  0  0  0  0  0  0  0  0  0  0
    9.3891   -2.1451   20.5904 O   0  0  0  0  0  0  0  0  0  0  0  0
    9.4490   -1.6432   25.5205 H   0  0  0  0  0  0  0  0  0  0  0  0
   11.6733   -1.1259   26.5079 H   0  0  0  0  0  0  0  0  0  0  0  0
    4.8506    2.0267   19.0253 H   0  0  0  0  0  0  0  0  0  0  0  0
   11.2059   -2.0122   21.5950 H   0  0  0  0  0  0  0  0  0  0  0  0
    6.0552    1.4358   16.9254 H   0  0  0  0  0  0  0  0  0  0  0  0
    8.5969   -1.1242   18.8991 H   0  0  0  0  0  0  0  0  0  0  0  0
   15.6970   -0.9839   23.4818 H   0  0  0  0  0  0  0  0  0  0  0  0
    4.5585    0.3702   21.6633 H   0  0  0  0  0  0  0  0  0  0  0  0
    6.0757    0.9952   22.3552 H   0  0  0  0  0  0  0  0  0  0  0  0
    5.0038    2.0845   21.4766 H   0  0  0  0  0  0  0  0  0  0  0  0
    8.6547   -3.2500   22.9890 H   0  0  0  0  0  0  0  0  0  0  0  0
    8.0618   -1.6891   23.5442 H   0  0  0  0  0  0  0  0  0  0  0  0
   14.4319   -0.8242   25.6759 H   0  0  0  0  0  0  0  0  0  0  0  0
    7.1392   -0.5722   22.2388 H   0  0  0  0  0  0  0  0  0  0  0  0
  1  2  2  0  0  0  0
  1  8  1  0  0  0  0
  2 11  1  0  0  0  0
  3  5  2  0  0  0  0
  3  9  1  0  0  0  0
  4  8  2  0  0  0  0
  4 10  1  0  0  0  0
  5 16  1  0  0  0  0
  6 12  1  0  0  0  0
  6 16  2  0  0  0  0
  7 17  2  0  0  0  0
  7 18  1  0  0  0  0
  8 15  1  0  0  0  0
  9 12  2  0  0  0  0
  9 14  1  0  0  0  0
 10 11  2  0  0  0  0
 10 17  1  0  0  0  0
 11 18  1  0  0  0  0
 12 19  1  0  0  0  0
 13 15  1  0  0  0  0
 13 19  1  0  0  0  0
 13 20  2  0  0  0  0
  1 21  1  0  0  0  0
  2 22  1  0  0  0  0
  3 23  1  0  0  0  0
  4 24  1  0  0  0  0
  5 25  1  0  0  0  0
  6 26  1  0  0  0  0
  7 27  1  0  0  0  0
 14 28  1  0  0  0  0
 14 29  1  0  0  0  0
 14 30  1  0  0  0  0
 15 31  1  0  0  0  0
 15 32  1  0  0  0  0
 18 33  1  0  0  0  0
 19 34  1  0  0  0  0
M  END
> <series>
3-aminopyridine-like

> <r_inhibition_at_20_uM>
0.0

> <r_inhibition_at_50_uM>
0.0

> <r_IC50>

> <f_inhibition_at_20_uM>
-2.241022

> <f_inhibition_at_50_uM>
4.267136

> <f_avg_IC50>

> <f_avg_pIC50>

> <ASSAYED>
True

> <Hybrid2>
-11.150334

> <docked_fragment>
x0678

> <Mpro-_dock>
-7.836346

> <site>
active-noncovalent

$$$$
TRY-UNI-714a760b-18
  -OEChem-07042000473D

 34 35  0     1  0  0  0  0  0999 V2000
   11.6178    0.0964   24.6585 C   0  0  0  0  0  0  0  0  0  0  0  0
   10.4125   -0.5524   24.3904 C   0  0  0  0  0  0  0  0  0  0  0  0
   12.7695   -0.2519   23.9528 C   0  0  0  0  0  0  0  0  0  0  0  0
    5.4234    0.8687   19.3288 C   0  0  0  0  0  0  0  0  0  0  0  0
   11.5106   -1.8980   22.7108 C   0  0  0  0  0  0  0  0  0  0  0  0
    6.0834    0.6341   18.1333 C   0  0  0  0  0  0  0  0  0  0  0  0
    7.7644   -0.5255   19.1856 C   0  0  0  0  0  0  0  0  0  0  0  0
   10.3589   -1.5496   23.4165 C   0  0  0  0  0  0  0  0  0  0  0  0
    5.9905    0.3664   20.4947 C   0  0  0  0  0  0  0  0  0  0  0  0
    7.1833   -0.3451   20.4304 C   0  0  0  0  0  0  0  0  0  0  0  0
   12.7159   -1.2491   22.9790 C   0  0  0  0  0  0  0  0  0  0  0  0
    8.5960   -2.0151   21.6806 C   0  0  0  0  0  0  0  0  0  0  0  0
    5.3005    0.6051   21.7976 C   0  0  0  0  0  0  0  0  0  0  0  0
    9.1476   -3.7515   23.4388 C   0  0  0  0  0  0  0  0  0  0  0  0
    9.0701   -2.2438   23.1312 C   0  0  1  0  0  0  0  0  0  0  0  0
    7.2434   -0.0525   18.0313 N   0  0  0  0  0  0  0  0  0  0  0  0
    7.7994   -0.8763   21.5883 N   0  0  0  0  0  0  0  0  0  0  0  0
    8.9307   -2.7606   20.7644 O   0  0  0  0  0  0  0  0  0  0  0  0
   14.1374   -1.6792   22.1094 Cl  0  0  0  0  0  0  0  0  0  0  0  0
   11.6592    0.8728   25.4170 H   0  0  0  0  0  0  0  0  0  0  0  0
    9.5202   -0.2746   24.9452 H   0  0  0  0  0  0  0  0  0  0  0  0
   13.7020    0.2621   24.1726 H   0  0  0  0  0  0  0  0  0  0  0  0
    4.4941    1.4280   19.3446 H   0  0  0  0  0  0  0  0  0  0  0  0
   11.4635   -2.6758   21.9521 H   0  0  0  0  0  0  0  0  0  0  0  0
    5.6826    1.0049   17.1956 H   0  0  0  0  0  0  0  0  0  0  0  0
    8.6955   -1.0725   19.0706 H   0  0  0  0  0  0  0  0  0  0  0  0
    4.5968   -0.2082   22.0093 H   0  0  0  0  0  0  0  0  0  0  0  0
    6.0212    0.6674   22.6222 H   0  0  0  0  0  0  0  0  0  0  0  0
    4.7469    1.5522   21.7852 H   0  0  0  0  0  0  0  0  0  0  0  0
    9.9256   -4.2429   22.8438 H   0  0  0  0  0  0  0  0  0  0  0  0
    9.3769   -3.9393   24.4938 H   0  0  0  0  0  0  0  0  0  0  0  0
    8.1918   -4.2378   23.2138 H   0  0  0  0  0  0  0  0  0  0  0  0
    8.2620   -1.8479   23.7780 H   0  0  0  0  0  0  0  0  0  0  0  0
    7.6348   -0.3525   22.4453 H   0  0  0  0  0  0  0  0  0  0  0  0
  1  2  2  0  0  0  0
  1  3  1  0  0  0  0
  2  8  1  0  0  0  0
  3 11  2  0  0  0  0
  4  6  2  0  0  0  0
  4  9  1  0  0  0  0
  5  8  2  0  0  0  0
  5 11  1  0  0  0  0
  6 16  1  0  0  0  0
  7 10  1  0  0  0  0
  7 16  2  0  0  0  0
  8 15  1  0  0  0  0
  9 10  2  0  0  0  0
  9 13  1  0  0  0  0
 10 17  1  0  0  0  0
 11 19  1  0  0  0  0
 12 15  1  0  0  0  0
 12 17  1  0  0  0  0
 12 18  2  0  0  0  0
 14 15  1  0  0  0  0
  1 20  1  0  0  0  0
  2 21  1  0  0  0  0
  3 22  1  0  0  0  0
  4 23  1  0  0  0  0
  5 24  1  0  0  0  0
  6 25  1  0  0  0  0
  7 26  1  0  0  0  0
 13 27  1  0  0  0  0
 13 28  1  0  0  0  0
 13 29  1  0  0  0  0
 14 30  1  0  0  0  0
 14 31  1  0  0  0  0
 14 32  1  0  0  0  0
 15 33  1  0  0  0  0
 17 34  1  0  0  0  0
M  END
> <series>
3-aminopyridine-like

> <r_inhibition_at_20_uM>
20.37830295

> <r_inhibition_at_50_uM>

> <r_IC50>
12.967693108434078

> <f_inhibition_at_20_uM>
58.02024

> <f_inhibition_at_50_uM>
78.712695

> <f_avg_IC50>
26.179637691562505

> <f_avg_pIC50>
4.582036368084879

> <ASSAYED>
True

> <Hybrid2>
-11.149205

> <docked_fragment>
x0678

> <Mpro-_dock>
-6.157744

> <site>
active-noncovalent

$$$$
TRY-UNI-714a760b-22
  -OEChem-07042000473D

 35 36  0     1  0  0  0  0  0999 V2000
   13.9790   -2.0099   23.4647 C   0  0  0  0  0  0  0  0  0  0  0  0
   11.6279    0.7711   24.2359 C   0  0  0  0  0  0  0  0  0  0  0  0
   12.8012    0.0224   24.1439 C   0  0  0  0  0  0  0  0  0  0  0  0
   10.4301    0.2542   23.7421 C   0  0  0  0  0  0  0  0  0  0  0  0
    5.4345    1.3827   18.7113 C   0  0  0  0  0  0  0  0  0  0  0  0
   11.5789   -1.7602   23.0642 C   0  0  0  0  0  0  0  0  0  0  0  0
    6.1431    1.1570   17.5423 C   0  0  0  0  0  0  0  0  0  0  0  0
    7.7671   -0.0316   18.6504 C   0  0  0  0  0  0  0  0  0  0  0  0
   12.7767   -1.2433   23.5581 C   0  0  0  0  0  0  0  0  0  0  0  0
   10.4056   -1.0114   23.1563 C   0  0  0  0  0  0  0  0  0  0  0  0
    5.9465    0.8604   19.8938 C   0  0  0  0  0  0  0  0  0  0  0  0
    7.1347    0.1386   19.8715 C   0  0  0  0  0  0  0  0  0  0  0  0
    8.8731   -1.1482   21.1637 C   0  0  0  0  0  0  0  0  0  0  0  0
    5.2034    1.0891   21.1691 C   0  0  0  0  0  0  0  0  0  0  0  0
    9.0567   -3.0965   22.7702 C   0  0  0  0  0  0  0  0  0  0  0  0
    9.1249   -1.5639   22.6283 C   0  0  1  0  0  0  0  0  0  0  0  0
   14.9554   -2.6325   23.3890 N   0  0  0  0  0  0  0  0  0  0  0  0
    7.3003    0.4608   17.4811 N   0  0  0  0  0  0  0  0  0  0  0  0
    7.6959   -0.4130   21.0476 N   0  0  0  0  0  0  0  0  0  0  0  0
    9.6575   -1.4364   20.2644 O   0  0  0  0  0  0  0  0  0  0  0  0
   11.6468    1.7571   24.6910 H   0  0  0  0  0  0  0  0  0  0  0  0
   13.7271    0.4386   24.5338 H   0  0  0  0  0  0  0  0  0  0  0  0
    9.5211    0.8449   23.8189 H   0  0  0  0  0  0  0  0  0  0  0  0
    4.5104    1.9504   18.6947 H   0  0  0  0  0  0  0  0  0  0  0  0
   11.5537   -2.7464   22.6052 H   0  0  0  0  0  0  0  0  0  0  0  0
    5.7862    1.5434   16.5932 H   0  0  0  0  0  0  0  0  0  0  0  0
    8.6974   -0.5858   18.5682 H   0  0  0  0  0  0  0  0  0  0  0  0
    4.4841    0.2798   21.3398 H   0  0  0  0  0  0  0  0  0  0  0  0
    5.8887    1.1342   22.0245 H   0  0  0  0  0  0  0  0  0  0  0  0
    4.6593    2.0414   21.1453 H   0  0  0  0  0  0  0  0  0  0  0  0
    9.8747   -3.5863   22.2300 H   0  0  0  0  0  0  0  0  0  0  0  0
    9.1242   -3.4106   23.8179 H   0  0  0  0  0  0  0  0  0  0  0  0
    8.1108   -3.4765   22.3687 H   0  0  0  0  0  0  0  0  0  0  0  0
    8.2636   -1.1717   23.2048 H   0  0  0  0  0  0  0  0  0  0  0  0
    7.1680   -0.2415   21.9007 H   0  0  0  0  0  0  0  0  0  0  0  0
  1  9  1  0  0  0  0
  1 17  3  0  0  0  0
  2  3  1  0  0  0  0
  2  4  2  0  0  0  0
  3  9  2  0  0  0  0
  4 10  1  0  0  0  0
  5  7  2  0  0  0  0
  5 11  1  0  0  0  0
  6  9  1  0  0  0  0
  6 10  2  0  0  0  0
  7 18  1  0  0  0  0
  8 12  1  0  0  0  0
  8 18  2  0  0  0  0
 10 16  1  0  0  0  0
 11 12  2  0  0  0  0
 11 14  1  0  0  0  0
 12 19  1  0  0  0  0
 13 16  1  0  0  0  0
 13 19  1  0  0  0  0
 13 20  2  0  0  0  0
 15 16  1  0  0  0  0
  2 21  1  0  0  0  0
  3 22  1  0  0  0  0
  4 23  1  0  0  0  0
  5 24  1  0  0  0  0
  6 25  1  0  0  0  0
  7 26  1  0  0  0  0
  8 27  1  0  0  0  0
 14 28  1  0  0  0  0
 14 29  1  0  0  0  0
 14 30  1  0  0  0  0
 15 31  1  0  0  0  0
 15 32  1  0  0  0  0
 15 33  1  0  0  0  0
 16 34  1  0  0  0  0
 19 35  1  0  0  0  0
M  END
> <series>
3-aminopyridine-like

> <r_inhibition_at_20_uM>
21.0225

> <r_inhibition_at_50_uM>
58.415

> <r_IC50>
45.3119234238456

> <f_inhibition_at_20_uM>
35.40893

> <f_inhibition_at_50_uM>
61.41119499999999

> <f_avg_IC50>
54.94210369958992

> <f_avg_pIC50>
4.260094715726666

> <ASSAYED>
True

> <Hybrid2>
-11.090258

> <docked_fragment>
x0678

> <Mpro-_dock>
-7.339839

> <site>
active-noncovalent

$$$$
JAN-GHE-83b26c96-23
  -OEChem-07042000473D

 31 32  0     0  0  0  0  0  0999 V2000
   12.7550   -2.3412   22.0013 C   0  0  0  0  0  0  0  0  0  0  0  0
   11.7648   -1.3599   21.9552 C   0  0  0  0  0  0  0  0  0  0  0  0
   13.8213   -2.2149   22.8918 C   0  0  0  0  0  0  0  0  0  0  0  0
    5.7766    0.9594   19.2393 C   0  0  0  0  0  0  0  0  0  0  0  0
   12.9071   -0.1259   23.6900 C   0  0  0  0  0  0  0  0  0  0  0  0
    6.3409    0.6097   18.0232 C   0  0  0  0  0  0  0  0  0  0  0  0
    8.4117    0.3045   18.9702 C   0  0  0  0  0  0  0  0  0  0  0  0
   11.8409   -0.2523   22.7996 C   0  0  0  0  0  0  0  0  0  0  0  0
    6.6005    0.9725   20.3593 C   0  0  0  0  0  0  0  0  0  0  0  0
    7.9445    0.6402   20.2307 C   0  0  0  0  0  0  0  0  0  0  0  0
   13.8973   -1.1073   23.7361 C   0  0  0  0  0  0  0  0  0  0  0  0
   10.1866    0.8983   21.3417 C   0  0  0  0  0  0  0  0  0  0  0  0
    6.0185    1.3464   21.6830 C   0  0  0  0  0  0  0  0  0  0  0  0
   10.7824    0.7972   22.7489 C   0  0  0  0  0  0  0  0  0  0  0  0
    7.6419    0.2807   17.8592 N   0  0  0  0  0  0  0  0  0  0  0  0
    8.8225    0.6385   21.3395 N   0  0  0  0  0  0  0  0  0  0  0  0
   10.9055    1.1439   20.3771 O   0  0  0  0  0  0  0  0  0  0  0  0
   11.2636    2.0384   23.0984 F   0  0  0  0  0  0  0  0  0  0  0  0
    9.7747    0.5797   23.6604 F   0  0  0  0  0  0  0  0  0  0  0  0
   15.2136   -0.9514   24.8337 Cl  0  0  0  0  0  0  0  0  0  0  0  0
   12.6955   -3.2036   21.3435 H   0  0  0  0  0  0  0  0  0  0  0  0
   10.9377   -1.4665   21.2582 H   0  0  0  0  0  0  0  0  0  0  0  0
   14.5860   -2.9874   22.9166 H   0  0  0  0  0  0  0  0  0  0  0  0
    4.7242    1.2137   19.3057 H   0  0  0  0  0  0  0  0  0  0  0  0
   12.9616    0.7394   24.3467 H   0  0  0  0  0  0  0  0  0  0  0  0
    5.7410    0.5843   17.1194 H   0  0  0  0  0  0  0  0  0  0  0  0
    9.4509    0.0354   18.8059 H   0  0  0  0  0  0  0  0  0  0  0  0
    5.6433    0.4547   22.1984 H   0  0  0  0  0  0  0  0  0  0  0  0
    6.7668    1.8308   22.3223 H   0  0  0  0  0  0  0  0  0  0  0  0
    5.1909    2.0568   21.5656 H   0  0  0  0  0  0  0  0  0  0  0  0
    8.3934    0.4206   22.2364 H   0  0  0  0  0  0  0  0  0  0  0  0
  1  2  2  0  0  0  0
  1  3  1  0  0  0  0
  2  8  1  0  0  0  0
  3 11  2  0  0  0  0
  4  6  2  0  0  0  0
  4  9  1  0  0  0  0
  5  8  2  0  0  0  0
  5 11  1  0  0  0  0
  6 15  1  0  0  0  0
  7 10  1  0  0  0  0
  7 15  2  0  0  0  0
  8 14  1  0  0  0  0
  9 10  2  0  0  0  0
  9 13  1  0  0  0  0
 10 16  1  0  0  0  0
 11 20  1  0  0  0  0
 12 14  1  0  0  0  0
 12 16  1  0  0  0  0
 12 17  2  0  0  0  0
 14 18  1  0  0  0  0
 14 19  1  0  0  0  0
  1 21  1  0  0  0  0
  2 22  1  0  0  0  0
  3 23  1  0  0  0  0
  4 24  1  0  0  0  0
  5 25  1  0  0  0  0
  6 26  1  0  0  0  0
  7 27  1  0  0  0  0
 13 28  1  0  0  0  0
 13 29  1  0  0  0  0
 13 30  1  0  0  0  0
 16 31  1  0  0  0  0
M  END
> <series>
3-aminopyridine-like

> <r_inhibition_at_20_uM>

> <r_inhibition_at_50_uM>
15.502346914

> <r_IC50>

> <f_inhibition_at_20_uM>
17.549795

> <f_inhibition_at_50_uM>
35.264575

> <f_avg_IC50>

> <f_avg_pIC50>

> <ASSAYED>
True

> <Hybrid2>
-11.055071

> <docked_fragment>
x0678

> <Mpro-_dock>
-6.513913

> <site>
active-noncovalent

$$$$
JAN-GHE-83b26c96-14
  -OEChem-07042000473D

 34 35  0     0  0  0  0  0  0999 V2000
   10.7897   -0.6959   25.9194 C   0  0  0  0  0  0  0  0  0  0  0  0
    9.6004   -1.0321   25.2727 C   0  0  0  0  0  0  0  0  0  0  0  0
   11.9970   -0.7310   25.2217 C   0  0  0  0  0  0  0  0  0  0  0  0
    5.6840    1.3660   18.6998 C   0  0  0  0  0  0  0  0  0  0  0  0
   10.8258   -1.4386   23.2306 C   0  0  0  0  0  0  0  0  0  0  0  0
    6.4803    0.9337   17.6516 C   0  0  0  0  0  0  0  0  0  0  0  0
    7.7441   -0.3905   19.0399 C   0  0  0  0  0  0  0  0  0  0  0  0
    9.6185   -1.4035   23.9283 C   0  0  0  0  0  0  0  0  0  0  0  0
   12.0151   -1.1024   23.8773 C   0  0  0  0  0  0  0  0  0  0  0  0
    5.9591    0.8754   19.9714 C   0  0  0  0  0  0  0  0  0  0  0  0
    7.0072   -0.0200   20.1533 C   0  0  0  0  0  0  0  0  0  0  0  0
    8.3424   -1.4459   21.7436 C   0  0  0  0  0  0  0  0  0  0  0  0
    5.1169    1.3252   21.1199 C   0  0  0  0  0  0  0  0  0  0  0  0
    8.3462   -1.7614   23.2372 C   0  0  0  0  0  0  0  0  0  0  0  0
   13.3063   -1.1406   23.1315 C   0  0  0  0  0  0  0  0  0  0  0  0
    7.5069    0.0650   17.7893 N   0  0  0  0  0  0  0  0  0  0  0  0
    7.3263   -0.5477   21.4271 N   0  0  0  0  0  0  0  0  0  0  0  0
    9.1536   -1.9511   20.9742 O   0  0  0  0  0  0  0  0  0  0  0  0
   14.3867   -0.7883   23.8894 F   0  0  0  0  0  0  0  0  0  0  0  0
   13.6108   -2.3734   22.6287 F   0  0  0  0  0  0  0  0  0  0  0  0
   13.3190   -0.2948   22.0604 F   0  0  0  0  0  0  0  0  0  0  0  0
   10.7755   -0.4066   26.9663 H   0  0  0  0  0  0  0  0  0  0  0  0
    8.6643   -1.0014   25.8244 H   0  0  0  0  0  0  0  0  0  0  0  0
   12.9189   -0.4682   25.7338 H   0  0  0  0  0  0  0  0  0  0  0  0
    4.8740    2.0657   18.5243 H   0  0  0  0  0  0  0  0  0  0  0  0
   10.8404   -1.7272   22.1822 H   0  0  0  0  0  0  0  0  0  0  0  0
    6.3071    1.2869   16.6403 H   0  0  0  0  0  0  0  0  0  0  0  0
    8.5742   -1.0864   19.1176 H   0  0  0  0  0  0  0  0  0  0  0  0
    4.2596    0.6541   21.2480 H   0  0  0  0  0  0  0  0  0  0  0  0
    5.6934    1.3380   22.0530 H   0  0  0  0  0  0  0  0  0  0  0  0
    4.7427    2.3443   20.9617 H   0  0  0  0  0  0  0  0  0  0  0  0
    8.1335   -2.8364   23.3587 H   0  0  0  0  0  0  0  0  0  0  0  0
    7.4978   -1.2316   23.7008 H   0  0  0  0  0  0  0  0  0  0  0  0
    6.7455   -0.2343   22.2021 H   0  0  0  0  0  0  0  0  0  0  0  0
  1  2  2  0  0  0  0
  1  3  1  0  0  0  0
  2  8  1  0  0  0  0
  3  9  2  0  0  0  0
  4  6  2  0  0  0  0
  4 10  1  0  0  0  0
  5  8  2  0  0  0  0
  5  9  1  0  0  0  0
  6 16  1  0  0  0  0
  7 11  1  0  0  0  0
  7 16  2  0  0  0  0
  8 14  1  0  0  0  0
  9 15  1  0  0  0  0
 10 11  2  0  0  0  0
 10 13  1  0  0  0  0
 11 17  1  0  0  0  0
 12 14  1  0  0  0  0
 12 17  1  0  0  0  0
 12 18  2  0  0  0  0
 15 19  1  0  0  0  0
 15 20  1  0  0  0  0
 15 21  1  0  0  0  0
  1 22  1  0  0  0  0
  2 23  1  0  0  0  0
  3 24  1  0  0  0  0
  4 25  1  0  0  0  0
  5 26  1  0  0  0  0
  6 27  1  0  0  0  0
  7 28  1  0  0  0  0
 13 29  1  0  0  0  0
 13 30  1  0  0  0  0
 13 31  1  0  0  0  0
 14 32  1  0  0  0  0
 14 33  1  0  0  0  0
 17 34  1  0  0  0  0
M  END
> <series>
3-aminopyridine-like

> <r_inhibition_at_20_uM>

> <r_inhibition_at_50_uM>
49.31505745158303

> <r_IC50>

> <f_inhibition_at_20_uM>
23.988545

> <f_inhibition_at_50_uM>
49.125045

> <f_avg_IC50>

> <f_avg_pIC50>

> <ASSAYED>
True

> <Hybrid2>
-11.043591

> <docked_fragment>
x0678

> <Mpro-_dock>
-6.058521

> <site>
active-noncovalent

$$$$
BEN-DND-61647d40-18
  -OEChem-07042000473D

 29 30  0     0  0  0  0  0  0999 V2000
    5.6986    0.9943   18.8016 C   0  0  0  0  0  0  0  0  0  0  0  0
    6.2237    0.3217   19.8994 C   0  0  0  0  0  0  0  0  0  0  0  0
   12.8260    1.2944   23.1349 C   0  0  0  0  0  0  0  0  0  0  0  0
   13.7625    0.3627   23.5826 C   0  0  0  0  0  0  0  0  0  0  0  0
   12.3522   -1.4337   22.7943 C   0  0  0  0  0  0  0  0  0  0  0  0
    6.3701    0.8887   17.5942 C   0  0  0  0  0  0  0  0  0  0  0  0
    7.9836   -0.4677   18.5080 C   0  0  0  0  0  0  0  0  0  0  0  0
    7.3878   -0.4255   19.7583 C   0  0  0  0  0  0  0  0  0  0  0  0
   11.4157   -0.5019   22.3466 C   0  0  0  0  0  0  0  0  0  0  0  0
   11.6526    0.8621   22.5169 C   0  0  0  0  0  0  0  0  0  0  0  0
   13.5256   -1.0013   23.4124 C   0  0  0  0  0  0  0  0  0  0  0  0
    8.9807   -0.3401   21.7226 C   0  0  0  0  0  0  0  0  0  0  0  0
    7.9812   -1.1660   20.9280 C   0  0  0  0  0  0  0  0  0  0  0  0
    7.5032    0.1725   17.4185 N   0  0  0  0  0  0  0  0  0  0  0  0
   10.2452   -0.9497   21.7295 N   0  0  0  0  0  0  0  0  0  0  0  0
    8.6724    0.7140   22.2695 O   0  0  0  0  0  0  0  0  0  0  0  0
   10.7505    1.7890   22.0866 O   0  0  0  0  0  0  0  0  0  0  0  0
   14.6810   -2.1503   23.9664 Cl  0  0  0  0  0  0  0  0  0  0  0  0
    4.7921    1.5825   18.8882 H   0  0  0  0  0  0  0  0  0  0  0  0
    5.7195    0.3851   20.8598 H   0  0  0  0  0  0  0  0  0  0  0  0
   13.0167    2.3555   23.2708 H   0  0  0  0  0  0  0  0  0  0  0  0
   14.6722    0.7141   24.0628 H   0  0  0  0  0  0  0  0  0  0  0  0
   12.1652   -2.4971   22.6607 H   0  0  0  0  0  0  0  0  0  0  0  0
    6.0013    1.3949   16.7082 H   0  0  0  0  0  0  0  0  0  0  0  0
    8.8937   -1.0344   18.3373 H   0  0  0  0  0  0  0  0  0  0  0  0
    7.1793   -1.4918   21.6027 H   0  0  0  0  0  0  0  0  0  0  0  0
    8.4798   -2.0762   20.5714 H   0  0  0  0  0  0  0  0  0  0  0  0
   10.3190   -1.8353   21.2169 H   0  0  0  0  0  0  0  0  0  0  0  0
   11.0705    2.6832   22.2828 H   0  0  0  0  0  0  0  0  0  0  0  0
  1  2  2  0  0  0  0
  1  6  1  0  0  0  0
  2  8  1  0  0  0  0
  3  4  2  0  0  0  0
  3 10  1  0  0  0  0
  4 11  1  0  0  0  0
  5  9  1  0  0  0  0
  5 11  2  0  0  0  0
  6 14  2  0  0  0  0
  7  8  2  0  0  0  0
  7 14  1  0  0  0  0
  8 13  1  0  0  0  0
  9 10  2  0  0  0  0
  9 15  1  0  0  0  0
 10 17  1  0  0  0  0
 11 18  1  0  0  0  0
 12 13  1  0  0  0  0
 12 15  1  0  0  0  0
 12 16  2  0  0  0  0
  1 19  1  0  0  0  0
  2 20  1  0  0  0  0
  3 21  1  0  0  0  0
  4 22  1  0  0  0  0
  5 23  1  0  0  0  0
  6 24  1  0  0  0  0
  7 25  1  0  0  0  0
 13 26  1  0  0  0  0
 13 27  1  0  0  0  0
 15 28  1  0  0  0  0
 17 29  1  0  0  0  0
M  END
> <series>
3-aminopyridine-like

> <r_inhibition_at_20_uM>

> <r_inhibition_at_50_uM>
6.625

> <r_IC50>

> <f_inhibition_at_20_uM>
-1.541334

> <f_inhibition_at_50_uM>
23.34414

> <f_avg_IC50>

> <f_avg_pIC50>

> <ASSAYED>
True

> <Hybrid2>
-10.973382

> <docked_fragment>
x0678

> <Mpro-_dock>
-7.470452

> <site>
active-noncovalent

$$$$
BAR-COM-0f94fc3d-18
  -OEChem-07042000473D

 35 37  0     0  0  0  0  0  0999 V2000
   13.4140    0.3604   23.3844 C   0  0  0  0  0  0  0  0  0  0  0  0
   13.9272   -0.5484   22.4517 C   0  0  0  0  0  0  0  0  0  0  0  0
    5.3689    1.0255   18.8476 C   0  0  0  0  0  0  0  0  0  0  0  0
   11.2122    1.0361   24.6090 C   0  0  0  0  0  0  0  0  0  0  0  0
   11.7482   -1.5912   22.1892 C   0  0  0  0  0  0  0  0  0  0  0  0
    6.1833    0.7692   17.7563 C   0  0  0  0  0  0  0  0  0  0  0  0
    7.8399   -0.1070   19.0853 C   0  0  0  0  0  0  0  0  0  0  0  0
    9.9443    0.5088   24.5243 C   0  0  0  0  0  0  0  0  0  0  0  0
   12.0489    0.2961   23.7274 C   0  0  0  0  0  0  0  0  0  0  0  0
    5.8450    0.6858   20.1090 C   0  0  0  0  0  0  0  0  0  0  0  0
   11.2491   -0.6763   23.1231 C   0  0  0  0  0  0  0  0  0  0  0  0
    7.1032    0.1084   20.2389 C   0  0  0  0  0  0  0  0  0  0  0  0
   13.1052   -1.5083   21.8646 C   0  0  0  0  0  0  0  0  0  0  0  0
    8.5206   -1.2888   21.7819 C   0  0  0  0  0  0  0  0  0  0  0  0
    4.9881    0.9515   21.3031 C   0  0  0  0  0  0  0  0  0  0  0  0
    8.8288   -1.3289   23.2672 C   0  0  0  0  0  0  0  0  0  0  0  0
    7.4110    0.2097   17.8430 N   0  0  0  0  0  0  0  0  0  0  0  0
    9.9765   -0.5238   23.6257 N   0  0  0  0  0  0  0  0  0  0  0  0
    7.6317   -0.2551   21.5002 N   0  0  0  0  0  0  0  0  0  0  0  0
    9.0168   -2.0812   20.9879 O   0  0  0  0  0  0  0  0  0  0  0  0
   13.6230   -2.3662   20.9745 F   0  0  0  0  0  0  0  0  0  0  0  0
   14.0658    1.1035   23.8347 H   0  0  0  0  0  0  0  0  0  0  0  0
   14.9791   -0.5039   22.1829 H   0  0  0  0  0  0  0  0  0  0  0  0
    4.3922    1.4774   18.7121 H   0  0  0  0  0  0  0  0  0  0  0  0
   11.5048    1.8654   25.2384 H   0  0  0  0  0  0  0  0  0  0  0  0
   11.1132   -2.3408   21.7290 H   0  0  0  0  0  0  0  0  0  0  0  0
    5.8584    1.0156   16.7508 H   0  0  0  0  0  0  0  0  0  0  0  0
    8.8287   -0.5547   19.1216 H   0  0  0  0  0  0  0  0  0  0  0  0
    9.0270    0.7828   25.0279 H   0  0  0  0  0  0  0  0  0  0  0  0
    4.3507    0.0850   21.5135 H   0  0  0  0  0  0  0  0  0  0  0  0
    5.5984    1.1604   22.1903 H   0  0  0  0  0  0  0  0  0  0  0  0
    4.3466    1.8271   21.1434 H   0  0  0  0  0  0  0  0  0  0  0  0
    7.9666   -0.9613   23.8353 H   0  0  0  0  0  0  0  0  0  0  0  0
    9.0284   -2.3608   23.5780 H   0  0  0  0  0  0  0  0  0  0  0  0
    7.3178    0.3140   22.2837 H   0  0  0  0  0  0  0  0  0  0  0  0
  1  2  2  0  0  0  0
  1  9  1  0  0  0  0
  2 13  1  0  0  0  0
  3  6  2  0  0  0  0
  3 10  1  0  0  0  0
  4  8  2  0  0  0  0
  4  9  1  0  0  0  0
  5 11  1  0  0  0  0
  5 13  2  0  0  0  0
  6 17  1  0  0  0  0
  7 12  1  0  0  0  0
  7 17  2  0  0  0  0
  8 18  1  0  0  0  0
  9 11  2  0  0  0  0
 10 12  2  0  0  0  0
 10 15  1  0  0  0  0
 11 18  1  0  0  0  0
 12 19  1  0  0  0  0
 13 21  1  0  0  0  0
 14 16  1  0  0  0  0
 14 19  1  0  0  0  0
 14 20  2  0  0  0  0
 16 18  1  0  0  0  0
  1 22  1  0  0  0  0
  2 23  1  0  0  0  0
  3 24  1  0  0  0  0
  4 25  1  0  0  0  0
  5 26  1  0  0  0  0
  6 27  1  0  0  0  0
  7 28  1  0  0  0  0
  8 29  1  0  0  0  0
 15 30  1  0  0  0  0
 15 31  1  0  0  0  0
 15 32  1  0  0  0  0
 16 33  1  0  0  0  0
 16 34  1  0  0  0  0
 19 35  1  0  0  0  0
M  END
> <series>
3-aminopyridine-like

> <r_inhibition_at_20_uM>

> <r_inhibition_at_50_uM>
41.685

> <r_IC50>

> <f_inhibition_at_20_uM>
31.472565000000003

> <f_inhibition_at_50_uM>
7.8169085

> <f_avg_IC50>

> <f_avg_pIC50>

> <ASSAYED>
True

> <Hybrid2>
-10.966222

> <docked_fragment>
x0678

> <Mpro-_dock>
-6.698192

> <site>
active-noncovalent

$$$$
DAR-DIA-23aa0b97-2
  -OEChem-07042000473D

 32 34  0     0  0  0  0  0  0999 V2000
    4.8132    1.8595   19.8671 C   0  0  0  0  0  0  0  0  0  0  0  0
   13.9839   -1.9808   22.7937 C   0  0  0  0  0  0  0  0  0  0  0  0
   12.5971   -2.1155   22.8240 C   0  0  0  0  0  0  0  0  0  0  0  0
    6.6847    0.4496   20.5908 C   0  0  0  0  0  0  0  0  0  0  0  0
   14.5739   -0.9758   23.5485 C   0  0  0  0  0  0  0  0  0  0  0  0
    6.4243    0.9295   18.2760 C   0  0  0  0  0  0  0  0  0  0  0  0
    8.1803   -0.3924   18.9446 C   0  0  0  0  0  0  0  0  0  0  0  0
   10.4215    0.0534   24.7996 C   0  0  0  0  0  0  0  0  0  0  0  0
    5.9725    1.0808   19.5771 C   0  0  0  0  0  0  0  0  0  0  0  0
   11.8686   -1.2195   23.6230 C   0  0  0  0  0  0  0  0  0  0  0  0
   10.4975   -1.0121   23.9287 C   0  0  0  0  0  0  0  0  0  0  0  0
    7.8109   -0.3030   20.2770 C   0  0  0  0  0  0  0  0  0  0  0  0
   12.5884   -0.2594   24.3283 C   0  0  0  0  0  0  0  0  0  0  0  0
    8.3104   -0.9592   22.6571 C   0  0  0  0  0  0  0  0  0  0  0  0
    9.3534   -1.7900   23.4127 C   0  0  0  0  0  0  0  0  0  0  0  0
    3.8700    2.4931   20.1030 N   0  0  0  0  0  0  0  0  0  0  0  0
    7.5138    0.2066   17.9324 N   0  0  0  0  0  0  0  0  0  0  0  0
   13.9237   -0.0863   24.3342 N   0  0  0  0  0  0  0  0  0  0  0  0
   11.6952    0.5023   25.0346 N   0  0  0  0  0  0  0  0  0  0  0  0
    8.5566   -0.9571   21.2864 N   0  0  0  0  0  0  0  0  0  0  0  0
    7.3981   -0.3911   23.2488 O   0  0  0  0  0  0  0  0  0  0  0  0
   14.5898   -2.6491   22.1913 H   0  0  0  0  0  0  0  0  0  0  0  0
   12.1046   -2.8909   22.2464 H   0  0  0  0  0  0  0  0  0  0  0  0
    6.3651    0.5419   21.6268 H   0  0  0  0  0  0  0  0  0  0  0  0
   15.6542   -0.8566   23.5376 H   0  0  0  0  0  0  0  0  0  0  0  0
    5.9128    1.3968   17.4394 H   0  0  0  0  0  0  0  0  0  0  0  0
    9.0498   -0.9659   18.6372 H   0  0  0  0  0  0  0  0  0  0  0  0
    9.5764    0.5329   25.2740 H   0  0  0  0  0  0  0  0  0  0  0  0
    9.6937   -2.5923   22.7288 H   0  0  0  0  0  0  0  0  0  0  0  0
    8.8269   -2.3138   24.2345 H   0  0  0  0  0  0  0  0  0  0  0  0
   11.9388    1.2773   25.6356 H   0  0  0  0  0  0  0  0  0  0  0  0
    9.3673   -1.4877   20.9743 H   0  0  0  0  0  0  0  0  0  0  0  0
  1  9  1  0  0  0  0
  1 16  3  0  0  0  0
  2  3  2  0  0  0  0
  2  5  1  0  0  0  0
  3 10  1  0  0  0  0
  4  9  2  0  0  0  0
  4 12  1  0  0  0  0
  5 18  2  0  0  0  0
  6  9  1  0  0  0  0
  6 17  2  0  0  0  0
  7 12  2  0  0  0  0
  7 17  1  0  0  0  0
  8 11  2  0  0  0  0
  8 19  1  0  0  0  0
 10 11  1  0  0  0  0
 10 13  2  0  0  0  0
 11 15  1  0  0  0  0
 12 20  1  0  0  0  0
 13 18  1  0  0  0  0
 13 19  1  0  0  0  0
 14 15  1  0  0  0  0
 14 20  1  0  0  0  0
 14 21  2  0  0  0  0
  2 22  1  0  0  0  0
  3 23  1  0  0  0  0
  4 24  1  0  0  0  0
  5 25  1  0  0  0  0
  6 26  1  0  0  0  0
  7 27  1  0  0  0  0
  8 28  1  0  0  0  0
 15 29  1  0  0  0  0
 15 30  1  0  0  0  0
 19 31  1  0  0  0  0
 20 32  1  0  0  0  0
M  END
> <series>
3-aminopyridine-like

> <r_inhibition_at_20_uM>

> <r_inhibition_at_50_uM>
0.0

> <r_IC50>

> <f_inhibition_at_20_uM>
-0.3835140000000001

> <f_inhibition_at_50_uM>
0.07752800000000004

> <f_avg_IC50>

> <f_avg_pIC50>

> <ASSAYED>
True

> <Hybrid2>
-10.932571

> <docked_fragment>
x0678

> <Mpro-_dock>
-7.099035

> <site>
active-noncovalent

$$$$
DAR-DIA-23aa0b97-6
  -OEChem-07042000473D

 28 29  0     0  0  0  0  0  0999 V2000
    5.5453    1.2554   20.5209 C   0  0  0  0  0  0  0  0  0  0  0  0
   14.1564   -0.7738   24.4110 C   0  0  0  0  0  0  0  0  0  0  0  0
   13.3527   -1.5105   23.5481 C   0  0  0  0  0  0  0  0  0  0  0  0
    7.6637    0.0324   20.6956 C   0  0  0  0  0  0  0  0  0  0  0  0
   13.5393    0.1371   25.2531 C   0  0  0  0  0  0  0  0  0  0  0  0
    6.8789    0.6879   18.5483 C   0  0  0  0  0  0  0  0  0  0  0  0
   11.4563   -0.3816   24.4343 C   0  0  0  0  0  0  0  0  0  0  0  0
    8.8644   -0.4578   18.7020 C   0  0  0  0  0  0  0  0  0  0  0  0
    6.6941    0.6597   19.9212 C   0  0  0  0  0  0  0  0  0  0  0  0
   11.9759   -1.3166   23.5537 C   0  0  0  0  0  0  0  0  0  0  0  0
    8.7727   -0.5395   20.0821 C   0  0  0  0  0  0  0  0  0  0  0  0
    9.8220   -1.3449   22.2258 C   0  0  0  0  0  0  0  0  0  0  0  0
   11.0783   -2.0995   22.6316 C   0  0  0  0  0  0  0  0  0  0  0  0
    4.6106    1.7402   21.0089 N   0  0  0  0  0  0  0  0  0  0  0  0
   12.2051    0.3529   25.2872 N   0  0  0  0  0  0  0  0  0  0  0  0
    7.9428    0.1434   17.9165 N   0  0  0  0  0  0  0  0  0  0  0  0
    9.7605   -1.1745   20.8311 N   0  0  0  0  0  0  0  0  0  0  0  0
    8.9984   -0.9537   23.0465 O   0  0  0  0  0  0  0  0  0  0  0  0
   15.2320   -0.9084   24.4241 H   0  0  0  0  0  0  0  0  0  0  0  0
   13.8074   -2.2328   22.8756 H   0  0  0  0  0  0  0  0  0  0  0  0
    7.5585   -0.0128   21.7777 H   0  0  0  0  0  0  0  0  0  0  0  0
   14.1222    0.7365   25.9447 H   0  0  0  0  0  0  0  0  0  0  0  0
    6.1585    1.1623   17.8880 H   0  0  0  0  0  0  0  0  0  0  0  0
   10.3894   -0.1872   24.4838 H   0  0  0  0  0  0  0  0  0  0  0  0
    9.7062   -0.8858   18.1659 H   0  0  0  0  0  0  0  0  0  0  0  0
   11.6317   -2.3743   21.7246 H   0  0  0  0  0  0  0  0  0  0  0  0
   10.7845   -3.0393   23.1161 H   0  0  0  0  0  0  0  0  0  0  0  0
   10.5444   -1.5690   20.2964 H   0  0  0  0  0  0  0  0  0  0  0  0
  1  9  1  0  0  0  0
  1 14  3  0  0  0  0
  2  3  2  0  0  0  0
  2  5  1  0  0  0  0
  3 10  1  0  0  0  0
  4  9  2  0  0  0  0
  4 11  1  0  0  0  0
  5 15  2  0  0  0  0
  6  9  1  0  0  0  0
  6 16  2  0  0  0  0
  7 10  2  0  0  0  0
  7 15  1  0  0  0  0
  8 11  2  0  0  0  0
  8 16  1  0  0  0  0
 10 13  1  0  0  0  0
 11 17  1  0  0  0  0
 12 13  1  0  0  0  0
 12 17  1  0  0  0  0
 12 18  2  0  0  0  0
  2 19  1  0  0  0  0
  3 20  1  0  0  0  0
  4 21  1  0  0  0  0
  5 22  1  0  0  0  0
  6 23  1  0  0  0  0
  7 24  1  0  0  0  0
  8 25  1  0  0  0  0
 13 26  1  0  0  0  0
 13 27  1  0  0  0  0
 17 28  1  0  0  0  0
M  END
> <series>
3-aminopyridine-like

> <r_inhibition_at_20_uM>

> <r_inhibition_at_50_uM>
0.0

> <r_IC50>

> <f_inhibition_at_20_uM>
0.2160645000000001

> <f_inhibition_at_50_uM>
-0.06091500000000005

> <f_avg_IC50>

> <f_avg_pIC50>

> <ASSAYED>
True

> <Hybrid2>
-10.881647

> <docked_fragment>
x0678

> <Mpro-_dock>
-6.047714

> <site>
active-noncovalent

$$$$
JAN-GHE-83b26c96-9
  -OEChem-07042000473D

 40 41  0     1  0  0  0  0  0999 V2000
   11.6999    1.2626   24.2980 C   0  0  0  0  0  0  0  0  0  0  0  0
   10.5234    0.6258   23.9029 C   0  0  0  0  0  0  0  0  0  0  0  0
   12.9132    0.5759   24.2543 C   0  0  0  0  0  0  0  0  0  0  0  0
    5.6603    1.3050   18.8701 C   0  0  0  0  0  0  0  0  0  0  0  0
   11.7737   -1.3845   23.4205 C   0  0  0  0  0  0  0  0  0  0  0  0
    6.3684    0.9666   17.7282 C   0  0  0  0  0  0  0  0  0  0  0  0
    7.9592   -0.1630   18.9413 C   0  0  0  0  0  0  0  0  0  0  0  0
   10.5603   -0.6977   23.4642 C   0  0  0  0  0  0  0  0  0  0  0  0
    6.1549    0.8712   20.0950 C   0  0  0  0  0  0  0  0  0  0  0  0
    7.3258    0.1227   20.1400 C   0  0  0  0  0  0  0  0  0  0  0  0
   12.9501   -0.7477   23.8156 C   0  0  0  0  0  0  0  0  0  0  0  0
    9.0306   -1.0870   21.5446 C   0  0  0  0  0  0  0  0  0  0  0  0
    5.4119    1.2222   21.3422 C   0  0  0  0  0  0  0  0  0  0  0  0
    9.4445   -3.2314   24.8128 C   0  0  0  0  0  0  0  0  0  0  0  0
    7.9655   -3.5707   22.8390 C   0  0  0  0  0  0  0  0  0  0  0  0
    9.2753   -1.3927   23.0342 C   0  0  1  0  0  0  0  0  0  0  0  0
    9.2743   -2.9239   23.3181 C   0  0  0  0  0  0  0  0  0  0  0  0
    7.5091    0.2412   17.7322 N   0  0  0  0  0  0  0  0  0  0  0  0
    7.8688   -0.3420   21.3614 N   0  0  0  0  0  0  0  0  0  0  0  0
    9.8188   -1.4537   20.6771 O   0  0  0  0  0  0  0  0  0  0  0  0
   14.4472   -1.5948   23.7629 Cl  0  0  0  0  0  0  0  0  0  0  0  0
   11.6707    2.2933   24.6397 H   0  0  0  0  0  0  0  0  0  0  0  0
    9.5825    1.1686   23.9403 H   0  0  0  0  0  0  0  0  0  0  0  0
   13.8222    1.0848   24.5655 H   0  0  0  0  0  0  0  0  0  0  0  0
    4.7499    1.8906   18.8007 H   0  0  0  0  0  0  0  0  0  0  0  0
   11.7972   -2.4162   23.0772 H   0  0  0  0  0  0  0  0  0  0  0  0
    6.0247    1.2808   16.7482 H   0  0  0  0  0  0  0  0  0  0  0  0
    8.8766   -0.7435   18.9111 H   0  0  0  0  0  0  0  0  0  0  0  0
    4.6730    0.4468   21.5751 H   0  0  0  0  0  0  0  0  0  0  0  0
    6.0944    1.3224   22.1952 H   0  0  0  0  0  0  0  0  0  0  0  0
    4.8905    2.1816   21.2361 H   0  0  0  0  0  0  0  0  0  0  0  0
    8.6453   -2.7727   25.4049 H   0  0  0  0  0  0  0  0  0  0  0  0
   10.4034   -2.8672   25.1933 H   0  0  0  0  0  0  0  0  0  0  0  0
    9.4186   -4.3120   24.9917 H   0  0  0  0  0  0  0  0  0  0  0  0
    7.0986   -3.1296   23.3431 H   0  0  0  0  0  0  0  0  0  0  0  0
    7.8264   -3.4522   21.7604 H   0  0  0  0  0  0  0  0  0  0  0  0
    7.9657   -4.6460   23.0486 H   0  0  0  0  0  0  0  0  0  0  0  0
    8.4384   -0.9652   23.6053 H   0  0  0  0  0  0  0  0  0  0  0  0
   10.0993   -3.4067   22.7788 H   0  0  0  0  0  0  0  0  0  0  0  0
    7.3407   -0.0874   22.1933 H   0  0  0  0  0  0  0  0  0  0  0  0
  1  2  2  0  0  0  0
  1  3  1  0  0  0  0
  2  8  1  0  0  0  0
  3 11  2  0  0  0  0
  4  6  2  0  0  0  0
  4  9  1  0  0  0  0
  5  8  2  0  0  0  0
  5 11  1  0  0  0  0
  6 18  1  0  0  0  0
  7 10  1  0  0  0  0
  7 18  2  0  0  0  0
  8 16  1  0  0  0  0
  9 10  2  0  0  0  0
  9 13  1  0  0  0  0
 10 19  1  0  0  0  0
 11 21  1  0  0  0  0
 12 16  1  0  0  0  0
 12 19  1  0  0  0  0
 12 20  2  0  0  0  0
 14 17  1  0  0  0  0
 15 17  1  0  0  0  0
 16 17  1  0  0  0  0
  1 22  1  0  0  0  0
  2 23  1  0  0  0  0
  3 24  1  0  0  0  0
  4 25  1  0  0  0  0
  5 26  1  0  0  0  0
  6 27  1  0  0  0  0
  7 28  1  0  0  0  0
 13 29  1  0  0  0  0
 13 30  1  0  0  0  0
 13 31  1  0  0  0  0
 14 32  1  0  0  0  0
 14 33  1  0  0  0  0
 14 34  1  0  0  0  0
 15 35  1  0  0  0  0
 15 36  1  0  0  0  0
 15 37  1  0  0  0  0
 16 38  1  0  0  0  0
 17 39  1  0  0  0  0
 19 40  1  0  0  0  0
M  END
> <series>
3-aminopyridine-like

> <r_inhibition_at_20_uM>

> <r_inhibition_at_50_uM>
15.0033608685

> <r_IC50>

> <f_inhibition_at_20_uM>
21.338915

> <f_inhibition_at_50_uM>
42.4666

> <f_avg_IC50>

> <f_avg_pIC50>

> <ASSAYED>
True

> <Hybrid2>
-10.873340

> <docked_fragment>
x0678

> <Mpro-_dock>
-6.424911

> <site>
active-noncovalent

$$$$
JAN-GHE-83b26c96-22
  -OEChem-07042000473D

 37 38  0     0  0  0  0  0  0999 V2000
   12.7008    0.1854   24.2074 C   0  0  0  0  0  0  0  0  0  0  0  0
   11.4506   -0.4122   24.0476 C   0  0  0  0  0  0  0  0  0  0  0  0
   13.7589   -0.1772   23.3740 C   0  0  0  0  0  0  0  0  0  0  0  0
    6.1475    1.2356   19.2427 C   0  0  0  0  0  0  0  0  0  0  0  0
   12.3167   -1.7354   22.2210 C   0  0  0  0  0  0  0  0  0  0  0  0
    6.7320    0.9618   18.0166 C   0  0  0  0  0  0  0  0  0  0  0  0
    8.4151   -0.2610   18.9914 C   0  0  0  0  0  0  0  0  0  0  0  0
   11.2586   -1.3727   23.0544 C   0  0  0  0  0  0  0  0  0  0  0  0
    6.7537    0.7193   20.3825 C   0  0  0  0  0  0  0  0  0  0  0  0
    7.9096   -0.0443   20.2631 C   0  0  0  0  0  0  0  0  0  0  0  0
   13.5669   -1.1376   22.3808 C   0  0  0  0  0  0  0  0  0  0  0  0
    9.3230   -1.7583   21.4560 C   0  0  0  0  0  0  0  0  0  0  0  0
    6.1452    0.9994   21.7174 C   0  0  0  0  0  0  0  0  0  0  0  0
   10.0538   -3.5552   23.0829 C   0  0  0  0  0  0  0  0  0  0  0  0
    8.8095   -1.5645   23.8916 C   0  0  0  0  0  0  0  0  0  0  0  0
    9.8813   -2.0316   22.8797 C   0  0  0  0  0  0  0  0  0  0  0  0
    7.8542    0.2242   17.8611 N   0  0  0  0  0  0  0  0  0  0  0  0
    8.5631   -0.5919   21.3928 N   0  0  0  0  0  0  0  0  0  0  0  0
    9.5537   -2.5259   20.5240 O   0  0  0  0  0  0  0  0  0  0  0  0
   14.8730   -1.5855   21.3536 Cl  0  0  0  0  0  0  0  0  0  0  0  0
   12.8499    0.9332   24.9810 H   0  0  0  0  0  0  0  0  0  0  0  0
   10.6319   -0.1236   24.7015 H   0  0  0  0  0  0  0  0  0  0  0  0
   14.7279    0.2967   23.5102 H   0  0  0  0  0  0  0  0  0  0  0  0
    5.2455    1.8351   19.3015 H   0  0  0  0  0  0  0  0  0  0  0  0
   12.1618   -2.4843   21.4478 H   0  0  0  0  0  0  0  0  0  0  0  0
    6.2982    1.3415   17.0974 H   0  0  0  0  0  0  0  0  0  0  0  0
    9.3142   -0.8492   18.8334 H   0  0  0  0  0  0  0  0  0  0  0  0
    5.4193    0.2196   21.9750 H   0  0  0  0  0  0  0  0  0  0  0  0
    6.9109    1.0374   22.5019 H   0  0  0  0  0  0  0  0  0  0  0  0
    5.6332    1.9697   21.7237 H   0  0  0  0  0  0  0  0  0  0  0  0
    9.0989   -4.0824   22.9697 H   0  0  0  0  0  0  0  0  0  0  0  0
   10.4463   -3.7968   24.0777 H   0  0  0  0  0  0  0  0  0  0  0  0
   10.7559   -3.9756   22.3528 H   0  0  0  0  0  0  0  0  0  0  0  0
    7.8433   -2.0568   23.7339 H   0  0  0  0  0  0  0  0  0  0  0  0
    8.6426   -0.4826   23.8319 H   0  0  0  0  0  0  0  0  0  0  0  0
    9.1183   -1.7910   24.9195 H   0  0  0  0  0  0  0  0  0  0  0  0
    8.4646   -0.0509   22.2485 H   0  0  0  0  0  0  0  0  0  0  0  0
  1  2  2  0  0  0  0
  1  3  1  0  0  0  0
  2  8  1  0  0  0  0
  3 11  2  0  0  0  0
  4  6  2  0  0  0  0
  4  9  1  0  0  0  0
  5  8  2  0  0  0  0
  5 11  1  0  0  0  0
  6 17  1  0  0  0  0
  7 10  1  0  0  0  0
  7 17  2  0  0  0  0
  8 16  1  0  0  0  0
  9 10  2  0  0  0  0
  9 13  1  0  0  0  0
 10 18  1  0  0  0  0
 11 20  1  0  0  0  0
 12 16  1  0  0  0  0
 12 18  1  0  0  0  0
 12 19  2  0  0  0  0
 14 16  1  0  0  0  0
 15 16  1  0  0  0  0
  1 21  1  0  0  0  0
  2 22  1  0  0  0  0
  3 23  1  0  0  0  0
  4 24  1  0  0  0  0
  5 25  1  0  0  0  0
  6 26  1  0  0  0  0
  7 27  1  0  0  0  0
 13 28  1  0  0  0  0
 13 29  1  0  0  0  0
 13 30  1  0  0  0  0
 14 31  1  0  0  0  0
 14 32  1  0  0  0  0
 14 33  1  0  0  0  0
 15 34  1  0  0  0  0
 15 35  1  0  0  0  0
 15 36  1  0  0  0  0
 18 37  1  0  0  0  0
M  END
> <series>
3-aminopyridine-like

> <r_inhibition_at_20_uM>

> <r_inhibition_at_50_uM>
66.91403689

> <r_IC50>
24.52280885811704

> <f_inhibition_at_20_uM>
49.325525

> <f_inhibition_at_50_uM>
67.95416

> <f_avg_IC50>
96.93832024835821

> <f_avg_pIC50>
4.013504510022681

> <ASSAYED>
True

> <Hybrid2>
-10.811332

> <docked_fragment>
x0678

> <Mpro-_dock>
-6.423939

> <site>
active-noncovalent

$$$$
ALP-POS-95b75b4d-1
  -OEChem-07042000473D

 31 32  0     0  0  0  0  0  0999 V2000
   12.4338    0.2477   24.1540 C   0  0  0  0  0  0  0  0  0  0  0  0
   11.1980   -0.1943   23.6820 C   0  0  0  0  0  0  0  0  0  0  0  0
   13.5756   -0.5275   23.9515 C   0  0  0  0  0  0  0  0  0  0  0  0
    5.9493    1.2499   18.9046 C   0  0  0  0  0  0  0  0  0  0  0  0
   12.2456   -2.1870   22.8051 C   0  0  0  0  0  0  0  0  0  0  0  0
    6.5863    1.0454   17.6913 C   0  0  0  0  0  0  0  0  0  0  0  0
    8.2435   -0.2085   18.6709 C   0  0  0  0  0  0  0  0  0  0  0  0
   11.1038   -1.4117   23.0076 C   0  0  0  0  0  0  0  0  0  0  0  0
    6.5152    0.6821   20.0406 C   0  0  0  0  0  0  0  0  0  0  0  0
    7.6843   -0.0625   19.9302 C   0  0  0  0  0  0  0  0  0  0  0  0
   13.4815   -1.7449   23.2771 C   0  0  0  0  0  0  0  0  0  0  0  0
    9.4615   -1.4258   21.0826 C   0  0  0  0  0  0  0  0  0  0  0  0
    5.8498    0.8871   21.3619 C   0  0  0  0  0  0  0  0  0  0  0  0
    9.7819   -1.8832   22.5034 C   0  0  0  0  0  0  0  0  0  0  0  0
    7.7228    0.3283   17.5446 N   0  0  0  0  0  0  0  0  0  0  0  0
    8.2983   -0.6605   21.0564 N   0  0  0  0  0  0  0  0  0  0  0  0
   10.1739   -1.7274   20.1304 O   0  0  0  0  0  0  0  0  0  0  0  0
   14.5778   -2.4896   23.0830 F   0  0  0  0  0  0  0  0  0  0  0  0
   12.5073    1.1959   24.6787 H   0  0  0  0  0  0  0  0  0  0  0  0
   10.3136    0.4164   23.8446 H   0  0  0  0  0  0  0  0  0  0  0  0
   14.5375   -0.1835   24.3194 H   0  0  0  0  0  0  0  0  0  0  0  0
    5.0383    1.8364   18.9568 H   0  0  0  0  0  0  0  0  0  0  0  0
   12.1824   -3.1364   22.2804 H   0  0  0  0  0  0  0  0  0  0  0  0
    6.1853    1.4672   16.7755 H   0  0  0  0  0  0  0  0  0  0  0  0
    9.1555   -0.7786   18.5202 H   0  0  0  0  0  0  0  0  0  0  0  0
    5.1237    0.0877   21.5497 H   0  0  0  0  0  0  0  0  0  0  0  0
    6.5826    0.8926   22.1782 H   0  0  0  0  0  0  0  0  0  0  0  0
    5.3260    1.8505   21.3966 H   0  0  0  0  0  0  0  0  0  0  0  0
    9.7341   -2.9845   22.5254 H   0  0  0  0  0  0  0  0  0  0  0  0
    8.9734   -1.5329   23.1659 H   0  0  0  0  0  0  0  0  0  0  0  0
    7.8359   -0.5143   21.9513 H   0  0  0  0  0  0  0  0  0  0  0  0
  1  2  2  0  0  0  0
  1  3  1  0  0  0  0
  2  8  1  0  0  0  0
  3 11  2  0  0  0  0
  4  6  2  0  0  0  0
  4  9  1  0  0  0  0
  5  8  2  0  0  0  0
  5 11  1  0  0  0  0
  6 15  1  0  0  0  0
  7 10  1  0  0  0  0
  7 15  2  0  0  0  0
  8 14  1  0  0  0  0
  9 10  2  0  0  0  0
  9 13  1  0  0  0  0
 10 16  1  0  0  0  0
 11 18  1  0  0  0  0
 12 14  1  0  0  0  0
 12 16  1  0  0  0  0
 12 17  2  0  0  0  0
  1 19  1  0  0  0  0
  2 20  1  0  0  0  0
  3 21  1  0  0  0  0
  4 22  1  0  0  0  0
  5 23  1  0  0  0  0
  6 24  1  0  0  0  0
  7 25  1  0  0  0  0
 13 26  1  0  0  0  0
 13 27  1  0  0  0  0
 13 28  1  0  0  0  0
 14 29  1  0  0  0  0
 14 30  1  0  0  0  0
 16 31  1  0  0  0  0
M  END
> <series>
3-aminopyridine-like

> <r_inhibition_at_20_uM>

> <r_inhibition_at_50_uM>
40.854543705

> <r_IC50>

> <f_inhibition_at_20_uM>
39.63515

> <f_inhibition_at_50_uM>
65.25146

> <f_avg_IC50>
95.8330784284157

> <f_avg_pIC50>
4.0184845608656286

> <ASSAYED>
True

> <Hybrid2>
-10.782475

> <docked_fragment>
x0678

> <Mpro-_dock>
-6.951624

> <site>
active-noncovalent

$$$$
EDJ-MED-49816e9b-2
  -OEChem-07042000473D

 34 35  0     0  0  0  0  0  0999 V2000
   13.9560   -0.9295   24.2354 C   0  0  0  0  0  0  0  0  0  0  0  0
   12.7520   -0.2260   24.2678 C   0  0  0  0  0  0  0  0  0  0  0  0
   14.2622   -1.7379   23.1406 C   0  0  0  0  0  0  0  0  0  0  0  0
    5.9464    1.0776   19.3931 C   0  0  0  0  0  0  0  0  0  0  0  0
   12.1601   -1.1395   22.1109 C   0  0  0  0  0  0  0  0  0  0  0  0
    6.4921    0.6330   18.1997 C   0  0  0  0  0  0  0  0  0  0  0  0
   11.8540   -0.3311   23.2056 C   0  0  0  0  0  0  0  0  0  0  0  0
    6.7138    0.9536   20.5459 C   0  0  0  0  0  0  0  0  0  0  0  0
    7.9856    0.3966   20.4711 C   0  0  0  0  0  0  0  0  0  0  0  0
   13.3642   -1.8429   22.0784 C   0  0  0  0  0  0  0  0  0  0  0  0
    8.4400   -0.0177   19.2294 C   0  0  0  0  0  0  0  0  0  0  0  0
   10.0418    0.8174   21.8640 C   0  0  0  0  0  0  0  0  0  0  0  0
    6.1480    1.4256   21.8453 C   0  0  0  0  0  0  0  0  0  0  0  0
    9.7982   -0.6239   19.0823 C   0  0  0  0  0  0  0  0  0  0  0  0
   10.5662    0.4204   23.2416 C   0  0  0  0  0  0  0  0  0  0  0  0
    7.7236    0.0866   18.0877 N   0  0  0  0  0  0  0  0  0  0  0  0
    8.7883    0.2582   21.6284 N   0  0  0  0  0  0  0  0  0  0  0  0
   10.6883    1.5364   21.1089 O   0  0  0  0  0  0  0  0  0  0  0  0
   13.7420   -2.8414   20.7285 Cl  0  0  0  0  0  0  0  0  0  0  0  0
   14.6549   -0.8475   25.0628 H   0  0  0  0  0  0  0  0  0  0  0  0
   12.5216    0.4014   25.1249 H   0  0  0  0  0  0  0  0  0  0  0  0
   15.2042   -2.2806   23.1290 H   0  0  0  0  0  0  0  0  0  0  0  0
    4.9506    1.5073   19.4172 H   0  0  0  0  0  0  0  0  0  0  0  0
   11.4569   -1.2177   21.2849 H   0  0  0  0  0  0  0  0  0  0  0  0
    5.9340    0.7068   17.2721 H   0  0  0  0  0  0  0  0  0  0  0  0
    5.6052    0.6123   22.3406 H   0  0  0  0  0  0  0  0  0  0  0  0
    6.9398    1.7780   22.5174 H   0  0  0  0  0  0  0  0  0  0  0  0
    5.4588    2.2658   21.6952 H   0  0  0  0  0  0  0  0  0  0  0  0
    9.7438   -1.7108   19.2106 H   0  0  0  0  0  0  0  0  0  0  0  0
   10.2224   -0.4083   18.0944 H   0  0  0  0  0  0  0  0  0  0  0  0
   10.4949   -0.2176   19.8255 H   0  0  0  0  0  0  0  0  0  0  0  0
    9.7875   -0.1777   23.7430 H   0  0  0  0  0  0  0  0  0  0  0  0
   10.6762    1.3377   23.8431 H   0  0  0  0  0  0  0  0  0  0  0  0
    8.4049   -0.3171   22.3755 H   0  0  0  0  0  0  0  0  0  0  0  0
  1  2  2  0  0  0  0
  1  3  1  0  0  0  0
  2  7  1  0  0  0  0
  3 10  2  0  0  0  0
  4  6  2  0  0  0  0
  4  8  1  0  0  0  0
  5  7  2  0  0  0  0
  5 10  1  0  0  0  0
  6 16  1  0  0  0  0
  7 15  1  0  0  0  0
  8  9  2  0  0  0  0
  8 13  1  0  0  0  0
  9 11  1  0  0  0  0
  9 17  1  0  0  0  0
 10 19  1  0  0  0  0
 11 14  1  0  0  0  0
 11 16  2  0  0  0  0
 12 15  1  0  0  0  0
 12 17  1  0  0  0  0
 12 18  2  0  0  0  0
  1 20  1  0  0  0  0
  2 21  1  0  0  0  0
  3 22  1  0  0  0  0
  4 23  1  0  0  0  0
  5 24  1  0  0  0  0
  6 25  1  0  0  0  0
 13 26  1  0  0  0  0
 13 27  1  0  0  0  0
 13 28  1  0  0  0  0
 14 29  1  0  0  0  0
 14 30  1  0  0  0  0
 14 31  1  0  0  0  0
 15 32  1  0  0  0  0
 15 33  1  0  0  0  0
 17 34  1  0  0  0  0
M  END
> <series>
3-aminopyridine-like

> <r_inhibition_at_20_uM>

> <r_inhibition_at_50_uM>
8.4970087445

> <r_IC50>

> <f_inhibition_at_20_uM>
-1.5983266

> <f_inhibition_at_50_uM>
13.252904999999998

> <f_avg_IC50>

> <f_avg_pIC50>

> <ASSAYED>
True

> <Hybrid2>
-10.778379

> <docked_fragment>
x0678

> <Mpro-_dock>
-7.405037

> <site>
active-noncovalent

$$$$
JAN-GHE-83b26c96-7
  -OEChem-07042000473D

 39 40  0     1  0  0  0  0  0999 V2000
   11.3633    1.2609   24.2987 C   0  0  0  0  0  0  0  0  0  0  0  0
   10.1867    0.6243   23.9039 C   0  0  0  0  0  0  0  0  0  0  0  0
   12.5765    0.5739   24.2553 C   0  0  0  0  0  0  0  0  0  0  0  0
   11.4364   -1.3865   23.4222 C   0  0  0  0  0  0  0  0  0  0  0  0
    7.6015   -0.1518   18.9351 C   0  0  0  0  0  0  0  0  0  0  0  0
    5.9900    0.9832   17.8029 C   0  0  0  0  0  0  0  0  0  0  0  0
   10.2233   -0.6995   23.4657 C   0  0  0  0  0  0  0  0  0  0  0  0
    6.9889    0.1206   20.1413 C   0  0  0  0  0  0  0  0  0  0  0  0
   12.6130   -0.7498   23.8170 C   0  0  0  0  0  0  0  0  0  0  0  0
    5.8295    0.8653   20.0673 C   0  0  0  0  0  0  0  0  0  0  0  0
    8.6934   -1.0890   21.5462 C   0  0  0  0  0  0  0  0  0  0  0  0
    5.0772    1.2227   21.3077 C   0  0  0  0  0  0  0  0  0  0  0  0
    9.1069   -3.2324   24.8151 C   0  0  0  0  0  0  0  0  0  0  0  0
    7.6278   -3.5720   22.8415 C   0  0  0  0  0  0  0  0  0  0  0  0
    8.9381   -1.3943   23.0359 C   0  0  1  0  0  0  0  0  0  0  0  0
    8.9367   -2.9253   23.3204 C   0  0  0  0  0  0  0  0  0  0  0  0
    7.1278    0.2654   17.7427 N   0  0  0  0  0  0  0  0  0  0  0  0
    5.2998    1.3149   18.9108 N   0  0  0  0  0  0  0  0  0  0  0  0
    7.5318   -0.3438   21.3628 N   0  0  0  0  0  0  0  0  0  0  0  0
    9.4815   -1.4562   20.6788 O   0  0  0  0  0  0  0  0  0  0  0  0
   14.1100   -1.5973   23.7647 Cl  0  0  0  0  0  0  0  0  0  0  0  0
   11.3343    2.2917   24.6401 H   0  0  0  0  0  0  0  0  0  0  0  0
    9.2459    1.1672   23.9412 H   0  0  0  0  0  0  0  0  0  0  0  0
   13.4856    1.0827   24.5663 H   0  0  0  0  0  0  0  0  0  0  0  0
   11.4598   -2.4183   23.0792 H   0  0  0  0  0  0  0  0  0  0  0  0
    8.5192   -0.7296   18.8823 H   0  0  0  0  0  0  0  0  0  0  0  0
    5.5856    1.3292   16.8593 H   0  0  0  0  0  0  0  0  0  0  0  0
    5.4362    2.1781   21.7070 H   0  0  0  0  0  0  0  0  0  0  0  0
    4.0022    1.3087   21.1076 H   0  0  0  0  0  0  0  0  0  0  0  0
    5.1982    0.4529   22.0796 H   0  0  0  0  0  0  0  0  0  0  0  0
    8.3078   -2.7733   25.4072 H   0  0  0  0  0  0  0  0  0  0  0  0
   10.0659   -2.8683   25.1956 H   0  0  0  0  0  0  0  0  0  0  0  0
    9.0807   -4.3129   24.9945 H   0  0  0  0  0  0  0  0  0  0  0  0
    6.7610   -3.1306   23.3455 H   0  0  0  0  0  0  0  0  0  0  0  0
    7.4887   -3.4539   21.7629 H   0  0  0  0  0  0  0  0  0  0  0  0
    7.6278   -4.6473   23.0515 H   0  0  0  0  0  0  0  0  0  0  0  0
    8.1013   -0.9664   23.6069 H   0  0  0  0  0  0  0  0  0  0  0  0
    9.7616   -3.4085   22.7812 H   0  0  0  0  0  0  0  0  0  0  0  0
    7.0038   -0.0889   22.1946 H   0  0  0  0  0  0  0  0  0  0  0  0
  1  2  2  0  0  0  0
  1  3  1  0  0  0  0
  2  7  1  0  0  0  0
  3  9  2  0  0  0  0
  4  7  2  0  0  0  0
  4  9  1  0  0  0  0
  5  8  1  0  0  0  0
  5 17  2  0  0  0  0
  6 17  1  0  0  0  0
  6 18  2  0  0  0  0
  7 15  1  0  0  0  0
  8 10  2  0  0  0  0
  8 19  1  0  0  0  0
  9 21  1  0  0  0  0
 10 12  1  0  0  0  0
 10 18  1  0  0  0  0
 11 15  1  0  0  0  0
 11 19  1  0  0  0  0
 11 20  2  0  0  0  0
 13 16  1  0  0  0  0
 14 16  1  0  0  0  0
 15 16  1  0  0  0  0
  1 22  1  0  0  0  0
  2 23  1  0  0  0  0
  3 24  1  0  0  0  0
  4 25  1  0  0  0  0
  5 26  1  0  0  0  0
  6 27  1  0  0  0  0
 12 28  1  0  0  0  0
 12 29  1  0  0  0  0
 12 30  1  0  0  0  0
 13 31  1  0  0  0  0
 13 32  1  0  0  0  0
 13 33  1  0  0  0  0
 14 34  1  0  0  0  0
 14 35  1  0  0  0  0
 14 36  1  0  0  0  0
 15 37  1  0  0  0  0
 16 38  1  0  0  0  0
 19 39  1  0  0  0  0
M  END
> <series>
3-aminopyridine-like

> <r_inhibition_at_20_uM>

> <r_inhibition_at_50_uM>
46.54853170142603

> <r_IC50>

> <f_inhibition_at_20_uM>
3.5181044999999997

> <f_inhibition_at_50_uM>
20.623595

> <f_avg_IC50>

> <f_avg_pIC50>

> <ASSAYED>
True

> <Hybrid2>
-10.776898

> <docked_fragment>
x0678

> <Mpro-_dock>
-5.153161

> <site>
active-noncovalent

$$$$
TRY-UNI-2eddb1ff-1
  -OEChem-07042000473D

 31 32  0     0  0  0  0  0  0999 V2000
   13.4020   -0.8119   22.7532 C   0  0  0  0  0  0  0  0  0  0  0  0
    5.4659    1.3286   18.6420 C   0  0  0  0  0  0  0  0  0  0  0  0
   10.9793   -1.1306   22.9623 C   0  0  0  0  0  0  0  0  0  0  0  0
    6.1791    0.8217   17.5677 C   0  0  0  0  0  0  0  0  0  0  0  0
   12.2020   -0.2952   24.8233 C   0  0  0  0  0  0  0  0  0  0  0  0
    9.9330   -0.5909   25.0288 C   0  0  0  0  0  0  0  0  0  0  0  0
    7.5581   -0.3969   18.9431 C   0  0  0  0  0  0  0  0  0  0  0  0
   12.1965   -0.7455   23.5130 C   0  0  0  0  0  0  0  0  0  0  0  0
    5.8444    0.9320   19.9198 C   0  0  0  0  0  0  0  0  0  0  0  0
    9.8211   -1.0548   23.7280 C   0  0  0  0  0  0  0  0  0  0  0  0
    6.9096    0.0531   20.0819 C   0  0  0  0  0  0  0  0  0  0  0  0
    8.3765   -1.2521   21.6598 C   0  0  0  0  0  0  0  0  0  0  0  0
    5.0932    1.4635   21.0962 C   0  0  0  0  0  0  0  0  0  0  0  0
    8.5040   -1.4605   23.1684 C   0  0  0  0  0  0  0  0  0  0  0  0
   14.3828   -0.8658   22.1351 N   0  0  0  0  0  0  0  0  0  0  0  0
    7.2192   -0.0338   17.6857 N   0  0  0  0  0  0  0  0  0  0  0  0
   11.0977   -0.2077   25.5982 N   0  0  0  0  0  0  0  0  0  0  0  0
    7.3324   -0.3802   21.3611 N   0  0  0  0  0  0  0  0  0  0  0  0
    9.1272   -1.8114   20.8669 O   0  0  0  0  0  0  0  0  0  0  0  0
    4.6398    2.0129   18.4814 H   0  0  0  0  0  0  0  0  0  0  0  0
   10.9270   -1.4917   21.9374 H   0  0  0  0  0  0  0  0  0  0  0  0
    5.9238    1.1002   16.5506 H   0  0  0  0  0  0  0  0  0  0  0  0
   13.1198    0.0207   25.3111 H   0  0  0  0  0  0  0  0  0  0  0  0
    9.0634   -0.5079   25.6735 H   0  0  0  0  0  0  0  0  0  0  0  0
    8.3963   -1.0846   19.0046 H   0  0  0  0  0  0  0  0  0  0  0  0
    4.2534    0.8029   21.3405 H   0  0  0  0  0  0  0  0  0  0  0  0
    5.7420    1.5447   21.9770 H   0  0  0  0  0  0  0  0  0  0  0  0
    4.7009    2.4681   20.8948 H   0  0  0  0  0  0  0  0  0  0  0  0
    8.3049   -2.5255   23.3800 H   0  0  0  0  0  0  0  0  0  0  0  0
    7.6880   -0.9012   23.6581 H   0  0  0  0  0  0  0  0  0  0  0  0
    6.8131   -0.0117   22.1552 H   0  0  0  0  0  0  0  0  0  0  0  0
  1  8  1  0  0  0  0
  1 15  3  0  0  0  0
  2  4  2  0  0  0  0
  2  9  1  0  0  0  0
  3  8  1  0  0  0  0
  3 10  2  0  0  0  0
  4 16  1  0  0  0  0
  5  8  2  0  0  0  0
  5 17  1  0  0  0  0
  6 10  1  0  0  0  0
  6 17  2  0  0  0  0
  7 11  1  0  0  0  0
  7 16  2  0  0  0  0
  9 11  2  0  0  0  0
  9 13  1  0  0  0  0
 10 14  1  0  0  0  0
 11 18  1  0  0  0  0
 12 14  1  0  0  0  0
 12 18  1  0  0  0  0
 12 19  2  0  0  0  0
  2 20  1  0  0  0  0
  3 21  1  0  0  0  0
  4 22  1  0  0  0  0
  5 23  1  0  0  0  0
  6 24  1  0  0  0  0
  7 25  1  0  0  0  0
 13 26  1  0  0  0  0
 13 27  1  0  0  0  0
 13 28  1  0  0  0  0
 14 29  1  0  0  0  0
 14 30  1  0  0  0  0
 18 31  1  0  0  0  0
M  END
> <series>
3-aminopyridine-like

> <r_inhibition_at_20_uM>

> <r_inhibition_at_50_uM>
22.867788855

> <r_IC50>

> <f_inhibition_at_20_uM>
35.51632

> <f_inhibition_at_50_uM>
42.149045

> <f_avg_IC50>

> <f_avg_pIC50>

> <ASSAYED>
True

> <Hybrid2>
-10.769693

> <docked_fragment>
x0678

> <Mpro-_dock>
-5.828539

> <site>
active-noncovalent

$$$$
JAN-GHE-83b26c96-18
  -OEChem-07042000473D

 29 31  0     0  0  0  0  0  0999 V2000
   14.4096   -2.0314   22.8805 C   0  0  0  0  0  0  0  0  0  0  0  0
    5.9373    0.8276   19.5050 C   0  0  0  0  0  0  0  0  0  0  0  0
    6.8464    0.3519   20.4433 C   0  0  0  0  0  0  0  0  0  0  0  0
   13.1469   -2.0266   22.2879 C   0  0  0  0  0  0  0  0  0  0  0  0
   14.6599   -1.2313   23.9953 C   0  0  0  0  0  0  0  0  0  0  0  0
   12.3848   -0.4215   23.9250 C   0  0  0  0  0  0  0  0  0  0  0  0
    6.2506    0.6768   18.1638 C   0  0  0  0  0  0  0  0  0  0  0  0
    8.2444   -0.3543   18.6535 C   0  0  0  0  0  0  0  0  0  0  0  0
    8.0246   -0.2516   20.0177 C   0  0  0  0  0  0  0  0  0  0  0  0
   12.1345   -1.2216   22.8102 C   0  0  0  0  0  0  0  0  0  0  0  0
   13.6475   -0.4263   24.5175 C   0  0  0  0  0  0  0  0  0  0  0  0
    9.0044   -0.7632   20.9831 C   0  0  0  0  0  0  0  0  0  0  0  0
   10.3018   -0.4097   21.1582 C   0  0  0  0  0  0  0  0  0  0  0  0
    9.7854   -2.1069   22.6467 C   0  0  0  0  0  0  0  0  0  0  0  0
    7.3849    0.0960   17.7123 N   0  0  0  0  0  0  0  0  0  0  0  0
    8.6737   -1.7730   21.8484 N   0  0  0  0  0  0  0  0  0  0  0  0
   10.8348   -1.2168   22.1984 N   0  0  0  0  0  0  0  0  0  0  0  0
   11.0712    0.3867   20.5612 O   0  5  0  0  0  0  0  0  0  0  0  0
    9.7911   -2.9445   23.5373 O   0  0  0  0  0  0  0  0  0  0  0  0
   13.9562    0.5610   25.8931 Cl  0  0  0  0  0  0  0  0  0  0  0  0
   15.1979   -2.6582   22.4737 H   0  0  0  0  0  0  0  0  0  0  0  0
    5.0125    1.3013   19.8137 H   0  0  0  0  0  0  0  0  0  0  0  0
    6.6236    0.4585   21.5020 H   0  0  0  0  0  0  0  0  0  0  0  0
   12.9636   -2.6543   21.4193 H   0  0  0  0  0  0  0  0  0  0  0  0
   15.6487   -1.2457   24.4464 H   0  0  0  0  0  0  0  0  0  0  0  0
   11.5928    0.2048   24.3299 H   0  0  0  0  0  0  0  0  0  0  0  0
    5.5746    1.0320   17.3931 H   0  0  0  0  0  0  0  0  0  0  0  0
    9.1445   -0.8150   18.2565 H   0  0  0  0  0  0  0  0  0  0  0  0
    7.7592   -2.2059   21.9000 H   0  0  0  0  0  0  0  0  0  0  0  0
  1  4  2  0  0  0  0
  1  5  1  0  0  0  0
  2  3  2  0  0  0  0
  2  7  1  0  0  0  0
  3  9  1  0  0  0  0
  4 10  1  0  0  0  0
  5 11  2  0  0  0  0
  6 10  2  0  0  0  0
  6 11  1  0  0  0  0
  7 15  2  0  0  0  0
  8  9  2  0  0  0  0
  8 15  1  0  0  0  0
  9 12  1  0  0  0  0
 10 17  1  0  0  0  0
 11 20  1  0  0  0  0
 12 13  2  0  0  0  0
 12 16  1  0  0  0  0
 13 17  1  0  0  0  0
 13 18  1  0  0  0  0
 14 16  1  0  0  0  0
 14 17  1  0  0  0  0
 14 19  2  0  0  0  0
  1 21  1  0  0  0  0
  2 22  1  0  0  0  0
  3 23  1  0  0  0  0
  4 24  1  0  0  0  0
  5 25  1  0  0  0  0
  6 26  1  0  0  0  0
  7 27  1  0  0  0  0
  8 28  1  0  0  0  0
 16 29  1  0  0  0  0
M  CHG  1  18  -1
M  END
> <series>
3-aminopyridine-like

> <r_inhibition_at_20_uM>

> <r_inhibition_at_50_uM>
69.55621881719537

> <r_IC50>

> <f_inhibition_at_20_uM>
18.107195

> <f_inhibition_at_50_uM>
33.925115000000005

> <f_avg_IC50>

> <f_avg_pIC50>

> <ASSAYED>
True

> <Hybrid2>
-10.739030

> <docked_fragment>
x0678

> <Mpro-_dock>
-7.345448

> <site>
active-noncovalent

$$$$
BEN-DND-031a96cc-8
  -OEChem-07042000473D

 29 30  0     0  0  0  0  0  0999 V2000
   14.5783   -1.6400   22.6101 C   0  0  0  0  0  0  0  0  0  0  0  0
   13.6312   -2.3135   23.3815 C   0  0  0  0  0  0  0  0  0  0  0  0
   14.1669   -0.7069   21.6584 C   0  0  0  0  0  0  0  0  0  0  0  0
    5.4649    1.1396   19.1571 C   0  0  0  0  0  0  0  0  0  0  0  0
    6.2646    0.8831   20.2652 C   0  0  0  0  0  0  0  0  0  0  0  0
   12.2726   -2.0540   23.2010 C   0  0  0  0  0  0  0  0  0  0  0  0
   12.8083   -0.4474   21.4780 C   0  0  0  0  0  0  0  0  0  0  0  0
    5.9690    0.8224   17.9061 C   0  0  0  0  0  0  0  0  0  0  0  0
    7.9379    0.0440   18.7982 C   0  0  0  0  0  0  0  0  0  0  0  0
    7.5261    0.3250   20.0910 C   0  0  0  0  0  0  0  0  0  0  0  0
   11.8611   -1.1209   22.2493 C   0  0  0  0  0  0  0  0  0  0  0  0
    7.8551   -0.2648   22.4357 C   0  0  0  0  0  0  0  0  0  0  0  0
    8.3987    0.0413   21.2462 C   0  0  0  0  0  0  0  0  0  0  0  0
    9.9020    0.0193   21.1577 C   0  0  0  0  0  0  0  0  0  0  0  0
    7.1892    0.2792   17.6973 N   0  0  0  0  0  0  0  0  0  0  0  0
   10.5022   -0.8614   22.0691 N   0  0  0  0  0  0  0  0  0  0  0  0
   10.4843    0.7194   20.3345 O   0  0  0  0  0  0  0  0  0  0  0  0
   15.6363   -1.8412   22.7509 H   0  0  0  0  0  0  0  0  0  0  0  0
   13.9512   -3.0394   24.1231 H   0  0  0  0  0  0  0  0  0  0  0  0
   14.9047   -0.1819   21.0587 H   0  0  0  0  0  0  0  0  0  0  0  0
    4.4781    1.5740   19.2691 H   0  0  0  0  0  0  0  0  0  0  0  0
    5.8917    1.1233   21.2577 H   0  0  0  0  0  0  0  0  0  0  0  0
   11.5435   -2.5849   23.8081 H   0  0  0  0  0  0  0  0  0  0  0  0
   12.4994    0.2820   20.7333 H   0  0  0  0  0  0  0  0  0  0  0  0
    5.3843    1.0040   17.0103 H   0  0  0  0  0  0  0  0  0  0  0  0
    8.9115   -0.3925   18.5945 H   0  0  0  0  0  0  0  0  0  0  0  0
    8.4595   -0.4900   23.3087 H   0  0  0  0  0  0  0  0  0  0  0  0
    6.7789   -0.2987   22.5792 H   0  0  0  0  0  0  0  0  0  0  0  0
    9.8654   -1.3946   22.6721 H   0  0  0  0  0  0  0  0  0  0  0  0
  1  2  1  0  0  0  0
  1  3  2  0  0  0  0
  2  6  2  0  0  0  0
  3  7  1  0  0  0  0
  4  5  2  0  0  0  0
  4  8  1  0  0  0  0
  5 10  1  0  0  0  0
  6 11  1  0  0  0  0
  7 11  2  0  0  0  0
  8 15  2  0  0  0  0
  9 10  2  0  0  0  0
  9 15  1  0  0  0  0
 10 13  1  0  0  0  0
 11 16  1  0  0  0  0
 12 13  2  0  0  0  0
 13 14  1  0  0  0  0
 14 16  1  0  0  0  0
 14 17  2  0  0  0  0
  1 18  1  0  0  0  0
  2 19  1  0  0  0  0
  3 20  1  0  0  0  0
  4 21  1  0  0  0  0
  5 22  1  0  0  0  0
  6 23  1  0  0  0  0
  7 24  1  0  0  0  0
  8 25  1  0  0  0  0
  9 26  1  0  0  0  0
 12 27  1  0  0  0  0
 12 28  1  0  0  0  0
 16 29  1  0  0  0  0
M  END
> <series>
3-aminopyridine-like

> <r_inhibition_at_20_uM>
0.0

> <r_inhibition_at_50_uM>

> <r_IC50>

> <f_inhibition_at_20_uM>
-18.00844

> <f_inhibition_at_50_uM>
-18.74687

> <f_avg_IC50>

> <f_avg_pIC50>

> <ASSAYED>
True

> <Hybrid2>
-10.705746

> <docked_fragment>
x0678

> <Mpro-_dock>
-6.785982

> <site>
active-noncovalent

$$$$
DAR-DIA-842b4336-16
  -OEChem-07042000473D

 27 28  0     0  0  0  0  0  0999 V2000
    5.6607    1.0211   18.9004 C   0  0  0  0  0  0  0  0  0  0  0  0
    6.2679    0.8679   20.1418 C   0  0  0  0  0  0  0  0  0  0  0  0
    6.4404    0.8374   17.7699 C   0  0  0  0  0  0  0  0  0  0  0  0
    8.3094    0.3778   19.0245 C   0  0  0  0  0  0  0  0  0  0  0  0
   13.2266   -0.4742   24.2557 C   0  0  0  0  0  0  0  0  0  0  0  0
    7.6173    0.5402   20.2138 C   0  0  0  0  0  0  0  0  0  0  0  0
   13.1712   -1.0083   22.9922 C   0  0  0  0  0  0  0  0  0  0  0  0
   11.3028   -0.0957   23.4947 C   0  0  0  0  0  0  0  0  0  0  0  0
    9.6009    0.6199   21.7642 C   0  0  0  0  0  0  0  0  0  0  0  0
   14.1126   -1.7345   22.1342 C   0  0  0  0  0  0  0  0  0  0  0  0
    9.8785    0.3155   23.2279 C   0  0  0  0  0  0  0  0  0  0  0  0
    7.7538    0.5185   17.8000 N   0  0  0  0  0  0  0  0  0  0  0  0
   12.0265    0.1095   24.5719 N   0  0  0  0  0  0  0  0  0  0  0  0
    8.2528    0.3804   21.4427 N   0  0  0  0  0  0  0  0  0  0  0  0
   10.4741    1.0192   21.0006 O   0  0  0  0  0  0  0  0  0  0  0  0
   11.9280   -0.7684   22.4899 O   0  0  0  0  0  0  0  0  0  0  0  0
    4.6101    1.2763   18.8205 H   0  0  0  0  0  0  0  0  0  0  0  0
    5.6809    1.0059   21.0460 H   0  0  0  0  0  0  0  0  0  0  0  0
    6.0141    0.9464   16.7781 H   0  0  0  0  0  0  0  0  0  0  0  0
    9.3647    0.1216   19.0159 H   0  0  0  0  0  0  0  0  0  0  0  0
   14.0555   -0.4774   24.9479 H   0  0  0  0  0  0  0  0  0  0  0  0
   14.0431   -2.8275   22.2873 H   0  0  0  0  0  0  0  0  0  0  0  0
   13.9384   -1.5436   21.0576 H   0  0  0  0  0  0  0  0  0  0  0  0
   15.1650   -1.4447   22.3198 H   0  0  0  0  0  0  0  0  0  0  0  0
    9.1978   -0.4801   23.5568 H   0  0  0  0  0  0  0  0  0  0  0  0
    9.6348    1.2031   23.8254 H   0  0  0  0  0  0  0  0  0  0  0  0
    7.6611    0.0446   22.2130 H   0  0  0  0  0  0  0  0  0  0  0  0
  1  2  2  0  0  0  0
  1  3  1  0  0  0  0
  2  6  1  0  0  0  0
  3 12  2  0  0  0  0
  4  6  2  0  0  0  0
  4 12  1  0  0  0  0
  5  7  2  0  0  0  0
  5 13  1  0  0  0  0
  6 14  1  0  0  0  0
  7 10  1  0  0  0  0
  7 16  1  0  0  0  0
  8 11  1  0  0  0  0
  8 13  2  0  0  0  0
  8 16  1  0  0  0  0
  9 11  1  0  0  0  0
  9 14  1  0  0  0  0
  9 15  2  0  0  0  0
  1 17  1  0  0  0  0
  2 18  1  0  0  0  0
  3 19  1  0  0  0  0
  4 20  1  0  0  0  0
  5 21  1  0  0  0  0
 10 22  1  0  0  0  0
 10 23  1  0  0  0  0
 10 24  1  0  0  0  0
 11 25  1  0  0  0  0
 11 26  1  0  0  0  0
 14 27  1  0  0  0  0
M  END
> <series>
3-aminopyridine-like

> <r_inhibition_at_20_uM>
0.0

> <r_inhibition_at_50_uM>
0.0

> <r_IC50>

> <f_inhibition_at_20_uM>

> <f_inhibition_at_50_uM>
-9.906875

> <f_avg_IC50>

> <f_avg_pIC50>

> <ASSAYED>
True

> <Hybrid2>
-10.643672

> <docked_fragment>
x0678

> <Mpro-_dock>
-5.550553

> <site>
active-noncovalent

$$$$
JAN-GHE-83b26c96-11
  -OEChem-07042000473D

 34 35  0     0  0  0  0  0  0999 V2000
   13.5129   -0.7247   24.7083 C   0  0  0  0  0  0  0  0  0  0  0  0
   13.8924   -1.3563   22.4074 C   0  0  0  0  0  0  0  0  0  0  0  0
   12.6137    0.2564   24.2907 C   0  0  0  0  0  0  0  0  0  0  0  0
   12.9932   -0.3752   21.9898 C   0  0  0  0  0  0  0  0  0  0  0  0
    5.9768    0.5065   19.8030 C   0  0  0  0  0  0  0  0  0  0  0  0
    6.4234    0.2465   18.5174 C   0  0  0  0  0  0  0  0  0  0  0  0
    8.6200    0.5332   19.1263 C   0  0  0  0  0  0  0  0  0  0  0  0
   14.1524   -1.5310   23.7667 C   0  0  0  0  0  0  0  0  0  0  0  0
   12.3538    0.4312   22.9315 C   0  0  0  0  0  0  0  0  0  0  0  0
    6.9274    0.7911   20.7770 C   0  0  0  0  0  0  0  0  0  0  0  0
    8.2764    0.8068   20.4404 C   0  0  0  0  0  0  0  0  0  0  0  0
   10.6580    1.1373   21.1910 C   0  0  0  0  0  0  0  0  0  0  0  0
   15.1139   -2.5802   24.2123 C   0  0  0  0  0  0  0  0  0  0  0  0
    6.4739    1.0757   22.1713 C   0  0  0  0  0  0  0  0  0  0  0  0
   11.3908    1.4793   22.4858 C   0  0  0  0  0  0  0  0  0  0  0  0
    7.7251    0.2526   18.1526 N   0  0  0  0  0  0  0  0  0  0  0  0
    9.2813    1.0905   21.3957 N   0  0  0  0  0  0  0  0  0  0  0  0
   11.2601    0.9391   20.1406 O   0  0  0  0  0  0  0  0  0  0  0  0
   13.7098   -0.8534   25.7694 H   0  0  0  0  0  0  0  0  0  0  0  0
   14.3854   -1.9810   21.6671 H   0  0  0  0  0  0  0  0  0  0  0  0
   12.1190    0.8790   25.0314 H   0  0  0  0  0  0  0  0  0  0  0  0
   12.7965   -0.2456   20.9288 H   0  0  0  0  0  0  0  0  0  0  0  0
    4.9169    0.4865   20.0328 H   0  0  0  0  0  0  0  0  0  0  0  0
    5.7221    0.0192   17.7213 H   0  0  0  0  0  0  0  0  0  0  0  0
    9.6565    0.5300   18.8022 H   0  0  0  0  0  0  0  0  0  0  0  0
   14.5910   -3.5287   24.3861 H   0  0  0  0  0  0  0  0  0  0  0  0
   15.8974   -2.7474   23.4618 H   0  0  0  0  0  0  0  0  0  0  0  0
   15.6212   -2.2873   25.1409 H   0  0  0  0  0  0  0  0  0  0  0  0
    6.4263    0.1474   22.7522 H   0  0  0  0  0  0  0  0  0  0  0  0
    7.1570    1.7696   22.6764 H   0  0  0  0  0  0  0  0  0  0  0  0
    5.4815    1.5434   22.1775 H   0  0  0  0  0  0  0  0  0  0  0  0
   10.6346    1.6618   23.2671 H   0  0  0  0  0  0  0  0  0  0  0  0
   11.9122    2.4397   22.3403 H   0  0  0  0  0  0  0  0  0  0  0  0
    8.9606    1.2826   22.3424 H   0  0  0  0  0  0  0  0  0  0  0  0
  1  3  2  0  0  0  0
  1  8  1  0  0  0  0
  2  4  1  0  0  0  0
  2  8  2  0  0  0  0
  3  9  1  0  0  0  0
  4  9  2  0  0  0  0
  5  6  2  0  0  0  0
  5 10  1  0  0  0  0
  6 16  1  0  0  0  0
  7 11  1  0  0  0  0
  7 16  2  0  0  0  0
  8 13  1  0  0  0  0
  9 15  1  0  0  0  0
 10 11  2  0  0  0  0
 10 14  1  0  0  0  0
 11 17  1  0  0  0  0
 12 15  1  0  0  0  0
 12 17  1  0  0  0  0
 12 18  2  0  0  0  0
  1 19  1  0  0  0  0
  2 20  1  0  0  0  0
  3 21  1  0  0  0  0
  4 22  1  0  0  0  0
  5 23  1  0  0  0  0
  6 24  1  0  0  0  0
  7 25  1  0  0  0  0
 13 26  1  0  0  0  0
 13 27  1  0  0  0  0
 13 28  1  0  0  0  0
 14 29  1  0  0  0  0
 14 30  1  0  0  0  0
 14 31  1  0  0  0  0
 15 32  1  0  0  0  0
 15 33  1  0  0  0  0
 17 34  1  0  0  0  0
M  END
> <series>
3-aminopyridine-like

> <r_inhibition_at_20_uM>

> <r_inhibition_at_50_uM>
5.560691032949529

> <r_IC50>

> <f_inhibition_at_20_uM>
6.319883

> <f_inhibition_at_50_uM>
3.2672500500000003

> <f_avg_IC50>

> <f_avg_pIC50>

> <ASSAYED>
True

> <Hybrid2>
-10.632592

> <docked_fragment>
x0678

> <Mpro-_dock>
-6.324327

> <site>
active-noncovalent

$$$$
BAR-COM-4e090d3a-21
  -OEChem-07042000473D

 40 42  0     1  0  0  0  0  0999 V2000
   14.3287   -2.2505   24.0454 C   0  0  0  0  0  0  0  0  0  0  0  0
   13.4118   -3.0628   23.3935 C   0  0  0  0  0  0  0  0  0  0  0  0
   14.2362   -0.8700   23.9117 C   0  0  0  0  0  0  0  0  0  0  0  0
   12.4079   -2.4945   22.6030 C   0  0  0  0  0  0  0  0  0  0  0  0
    5.2958    1.3582   18.0560 C   0  0  0  0  0  0  0  0  0  0  0  0
    6.2409    0.8873   17.1714 C   0  0  0  0  0  0  0  0  0  0  0  0
    6.5819    0.6477   19.8083 C   0  0  0  0  0  0  0  0  0  0  0  0
   13.2219   -0.2911   23.1277 C   0  0  0  0  0  0  0  0  0  0  0  0
   12.2892   -1.1000   22.4370 C   0  0  0  0  0  0  0  0  0  0  0  0
    7.5267    0.1761   18.9238 C   0  0  0  0  0  0  0  0  0  0  0  0
   10.8056    1.7792   23.5586 C   0  0  0  0  0  0  0  0  0  0  0  0
    9.0181   -0.6403   20.7822 C   0  0  0  0  0  0  0  0  0  0  0  0
   13.1841    1.2158   23.0198 C   0  0  0  0  0  0  0  0  0  0  0  0
   11.3788    0.8926   21.3055 C   0  0  0  0  0  0  0  0  0  0  0  0
   11.8548    1.7349   22.4828 C   0  0  1  0  0  0  0  0  0  0  0  0
   10.3531   -1.3499   20.9004 C   0  0  0  0  0  0  0  0  0  0  0  0
    5.4494    1.2469   19.3903 N   0  0  0  0  0  0  0  0  0  0  0  0
    7.3733    0.2877   17.5894 N   0  0  0  0  0  0  0  0  0  0  0  0
   11.2878   -0.5258   21.6538 N   0  0  1  0  0  0  0  0  0  0  0  0
    9.8799    2.7815   23.3895 N   0  0  0  0  0  0  0  0  0  0  0  0
    8.6906   -0.4385   19.4440 N   0  0  0  0  0  0  0  0  0  0  0  0
   10.7864    0.9728   24.4854 O   0  0  0  0  0  0  0  0  0  0  0  0
    8.3573   -0.3223   21.7658 O   0  0  0  0  0  0  0  0  0  0  0  0
   15.1116   -2.6892   24.6563 H   0  0  0  0  0  0  0  0  0  0  0  0
   13.4744   -4.1426   23.4937 H   0  0  0  0  0  0  0  0  0  0  0  0
   14.9574   -0.2388   24.4260 H   0  0  0  0  0  0  0  0  0  0  0  0
   11.7209   -3.1791   22.1112 H   0  0  0  0  0  0  0  0  0  0  0  0
    4.3863    1.8399   17.7193 H   0  0  0  0  0  0  0  0  0  0  0  0
    6.1170    0.9772   16.0995 H   0  0  0  0  0  0  0  0  0  0  0  0
    6.6949    0.5637   20.8833 H   0  0  0  0  0  0  0  0  0  0  0  0
   13.3893    1.6607   24.0018 H   0  0  0  0  0  0  0  0  0  0  0  0
   13.9909    1.5205   22.3409 H   0  0  0  0  0  0  0  0  0  0  0  0
   10.3999    1.2611   20.9749 H   0  0  0  0  0  0  0  0  0  0  0  0
   12.0682    1.0079   20.4593 H   0  0  0  0  0  0  0  0  0  0  0  0
   11.9854    2.7714   22.1522 H   0  0  0  0  0  0  0  0  0  0  0  0
   10.7586   -1.5436   19.9023 H   0  0  0  0  0  0  0  0  0  0  0  0
   10.2040   -2.3056   21.4126 H   0  0  0  0  0  0  0  0  0  0  0  0
    9.9667    3.3940   22.5852 H   0  0  0  0  0  0  0  0  0  0  0  0
    9.1131    2.9334   24.0368 H   0  0  0  0  0  0  0  0  0  0  0  0
    9.3566   -0.7666   18.7478 H   0  0  0  0  0  0  0  0  0  0  0  0
  1  2  1  0  0  0  0
  1  3  2  0  0  0  0
  2  4  2  0  0  0  0
  3  8  1  0  0  0  0
  4  9  1  0  0  0  0
  5  6  2  0  0  0  0
  5 17  1  0  0  0  0
  6 18  1  0  0  0  0
  7 10  1  0  0  0  0
  7 17  2  0  0  0  0
  8  9  2  0  0  0  0
  8 13  1  0  0  0  0
  9 19  1  0  0  0  0
 10 18  2  0  0  0  0
 10 21  1  0  0  0  0
 11 15  1  0  0  0  0
 11 20  1  0  0  0  0
 11 22  2  0  0  0  0
 12 16  1  0  0  0  0
 12 21  1  0  0  0  0
 12 23  2  0  0  0  0
 13 15  1  0  0  0  0
 14 15  1  0  0  0  0
 14 19  1  0  0  0  0
 16 19  1  0  0  0  0
  1 24  1  0  0  0  0
  2 25  1  0  0  0  0
  3 26  1  0  0  0  0
  4 27  1  0  0  0  0
  5 28  1  0  0  0  0
  6 29  1  0  0  0  0
  7 30  1  0  0  0  0
 13 31  1  0  0  0  0
 13 32  1  0  0  0  0
 14 33  1  0  0  0  0
 14 34  1  0  0  0  0
 15 35  1  0  0  0  0
 16 36  1  0  0  0  0
 16 37  1  0  0  0  0
 20 38  1  0  0  0  0
 20 39  1  0  0  0  0
 21 40  1  0  0  0  0
M  END
> <series>
3-aminopyridine-like

> <r_inhibition_at_20_uM>
0.0

> <r_inhibition_at_50_uM>
0.0

> <r_IC50>

> <f_inhibition_at_20_uM>
0.02920250000000024

> <f_inhibition_at_50_uM>
6.1933570000000016

> <f_avg_IC50>

> <f_avg_pIC50>

> <ASSAYED>
True

> <Hybrid2>
-10.617538

> <docked_fragment>
x0678

> <Mpro-_dock>
-5.142529

> <site>
active-noncovalent

$$$$
TRY-UNI-714a760b-20
  -OEChem-07042000473D

 32 33  0     0  0  0  0  0  0999 V2000
   13.9948   -1.9481   23.9710 C   0  0  0  0  0  0  0  0  0  0  0  0
   11.7850    0.9899   24.5548 C   0  0  0  0  0  0  0  0  0  0  0  0
   12.9182    0.1774   24.5203 C   0  0  0  0  0  0  0  0  0  0  0  0
   10.5670    0.5088   24.0746 C   0  0  0  0  0  0  0  0  0  0  0  0
    5.6206    1.3917   18.8571 C   0  0  0  0  0  0  0  0  0  0  0  0
   11.6155   -1.5973   23.5252 C   0  0  0  0  0  0  0  0  0  0  0  0
    6.3186    1.0206   17.7191 C   0  0  0  0  0  0  0  0  0  0  0  0
    7.8915   -0.1183   18.9467 C   0  0  0  0  0  0  0  0  0  0  0  0
   12.8335   -1.1162   24.0055 C   0  0  0  0  0  0  0  0  0  0  0  0
   10.4822   -0.7848   23.5597 C   0  0  0  0  0  0  0  0  0  0  0  0
    6.1107    0.9693   20.0878 C   0  0  0  0  0  0  0  0  0  0  0  0
    7.2673    0.1996   20.1422 C   0  0  0  0  0  0  0  0  0  0  0  0
    8.9481   -1.0269   21.5620 C   0  0  0  0  0  0  0  0  0  0  0  0
    5.3784    1.3554   21.3309 C   0  0  0  0  0  0  0  0  0  0  0  0
    9.1798   -1.2989   23.0462 C   0  0  0  0  0  0  0  0  0  0  0  0
   14.9380   -2.6237   23.9430 N   0  0  0  0  0  0  0  0  0  0  0  0
    7.4454    0.2738   17.7323 N   0  0  0  0  0  0  0  0  0  0  0  0
    7.8053   -0.2547   21.3699 N   0  0  0  0  0  0  0  0  0  0  0  0
    9.7049   -1.4612   20.6995 O   0  0  0  0  0  0  0  0  0  0  0  0
   11.8508    1.9976   24.9546 H   0  0  0  0  0  0  0  0  0  0  0  0
   13.8606    0.5664   24.8988 H   0  0  0  0  0  0  0  0  0  0  0  0
    9.6894    1.1492   24.1063 H   0  0  0  0  0  0  0  0  0  0  0  0
    4.7213    1.9932   18.7803 H   0  0  0  0  0  0  0  0  0  0  0  0
   11.5434   -2.6051   23.1213 H   0  0  0  0  0  0  0  0  0  0  0  0
    5.9779    1.3247   16.7348 H   0  0  0  0  0  0  0  0  0  0  0  0
    8.7975   -0.7166   18.9239 H   0  0  0  0  0  0  0  0  0  0  0  0
    4.6257    0.5982   21.5790 H   0  0  0  0  0  0  0  0  0  0  0  0
    6.0653    1.4571   22.1801 H   0  0  0  0  0  0  0  0  0  0  0  0
    4.8749    2.3226   21.2100 H   0  0  0  0  0  0  0  0  0  0  0  0
    9.1066   -2.3870   23.2084 H   0  0  0  0  0  0  0  0  0  0  0  0
    8.3441   -0.8529   23.6101 H   0  0  0  0  0  0  0  0  0  0  0  0
    7.2978    0.0143   22.2103 H   0  0  0  0  0  0  0  0  0  0  0  0
  1  9  1  0  0  0  0
  1 16  3  0  0  0  0
  2  3  1  0  0  0  0
  2  4  2  0  0  0  0
  3  9  2  0  0  0  0
  4 10  1  0  0  0  0
  5  7  2  0  0  0  0
  5 11  1  0  0  0  0
  6  9  1  0  0  0  0
  6 10  2  0  0  0  0
  7 17  1  0  0  0  0
  8 12  1  0  0  0  0
  8 17  2  0  0  0  0
 10 15  1  0  0  0  0
 11 12  2  0  0  0  0
 11 14  1  0  0  0  0
 12 18  1  0  0  0  0
 13 15  1  0  0  0  0
 13 18  1  0  0  0  0
 13 19  2  0  0  0  0
  2 20  1  0  0  0  0
  3 21  1  0  0  0  0
  4 22  1  0  0  0  0
  5 23  1  0  0  0  0
  6 24  1  0  0  0  0
  7 25  1  0  0  0  0
  8 26  1  0  0  0  0
 14 27  1  0  0  0  0
 14 28  1  0  0  0  0
 14 29  1  0  0  0  0
 15 30  1  0  0  0  0
 15 31  1  0  0  0  0
 18 32  1  0  0  0  0
M  END
> <series>
3-aminopyridine-like

> <r_inhibition_at_20_uM>
20.495

> <r_inhibition_at_50_uM>
52.68000000000001

> <r_IC50>
43.847050990618925

> <f_inhibition_at_20_uM>
33.561645

> <f_inhibition_at_50_uM>
58.318794999999994

> <f_avg_IC50>
61.330272009433386

> <f_avg_pIC50>
4.212325109143683

> <ASSAYED>
True

> <Hybrid2>
-10.601052

> <docked_fragment>
x0678

> <Mpro-_dock>
-6.645129

> <site>
active-noncovalent

$$$$
LON-WEI-adc59df6-44
  -OEChem-07042000473D

 55 57  0     1  0  0  0  0  0999 V2000
    5.6361    1.2969   18.7842 C   0  0  0  0  0  0  0  0  0  0  0  0
    6.0887    0.9430   20.0503 C   0  0  0  0  0  0  0  0  0  0  0  0
   11.5359   -2.3936   23.3831 C   0  0  0  0  0  0  0  0  0  0  0  0
   12.1295   -0.9780   21.5174 C   0  0  0  0  0  0  0  0  0  0  0  0
   10.1944   -2.3269   23.0069 C   0  0  0  0  0  0  0  0  0  0  0  0
   10.7879   -0.9113   21.1412 C   0  0  0  0  0  0  0  0  0  0  0  0
    6.3860    0.8937   17.6911 C   0  0  0  0  0  0  0  0  0  0  0  0
    7.9381   -0.1476   19.0272 C   0  0  0  0  0  0  0  0  0  0  0  0
   12.5034   -1.7191   22.6384 C   0  0  0  0  0  0  0  0  0  0  0  0
    7.2610    0.2071   20.1828 C   0  0  0  0  0  0  0  0  0  0  0  0
    9.8204   -1.5858   21.8860 C   0  0  0  0  0  0  0  0  0  0  0  0
    7.7115   -5.1153   21.4433 C   0  0  0  0  0  0  0  0  0  0  0  0
    8.3893   -3.9984   21.1605 C   0  0  0  0  0  0  0  0  0  0  0  0
    7.6963   -2.6767   21.1607 C   0  0  0  0  0  0  0  0  0  0  0  0
    8.7458    0.8404   22.1090 C   0  0  0  0  0  0  0  0  0  0  0  0
    9.0304    3.2000   24.5538 C   0  0  0  0  0  0  0  0  0  0  0  0
    9.0954    2.1993   25.6687 C   0  0  0  0  0  0  0  0  0  0  0  0
    9.5101    1.8011   24.2788 C   0  0  0  0  0  0  0  0  0  0  0  0
   14.4557   -3.2621   23.0303 C   0  0  0  0  0  0  0  0  0  0  0  0
   14.1505   -1.2272   24.4802 C   0  0  0  0  0  0  0  0  0  0  0  0
   14.9307   -0.9933   22.1312 C   0  0  0  0  0  0  0  0  0  0  0  0
    7.7788   -0.1936   21.5446 C   0  0  2  0  0  0  0  0  0  0  0  0
   13.9822   -1.7926   23.0532 C   0  0  0  0  0  0  0  0  0  0  0  0
    7.5294    0.1780   17.7803 N   0  0  0  0  0  0  0  0  0  0  0  0
    8.7200    0.8781   23.4961 N   0  0  0  0  0  0  0  0  0  0  0  0
    8.4787   -1.5191   21.5093 N   0  0  0  0  0  0  0  0  0  0  0  0
    6.4952   -2.6357   20.8929 O   0  0  0  0  0  0  0  0  0  0  0  0
    9.4295    1.5726   21.3961 O   0  0  0  0  0  0  0  0  0  0  0  0
    4.7248    1.8701   18.6569 H   0  0  0  0  0  0  0  0  0  0  0  0
    5.5222    1.2445   20.9271 H   0  0  0  0  0  0  0  0  0  0  0  0
   11.8180   -2.9716   24.2592 H   0  0  0  0  0  0  0  0  0  0  0  0
   12.8766   -0.4487   20.9319 H   0  0  0  0  0  0  0  0  0  0  0  0
    9.4488   -2.8569   23.5944 H   0  0  0  0  0  0  0  0  0  0  0  0
   10.5074   -0.3299   20.2665 H   0  0  0  0  0  0  0  0  0  0  0  0
    6.0755    1.1449   16.6822 H   0  0  0  0  0  0  0  0  0  0  0  0
    8.8585   -0.7219   19.0680 H   0  0  0  0  0  0  0  0  0  0  0  0
    8.2249   -6.0709   21.4646 H   0  0  0  0  0  0  0  0  0  0  0  0
    6.6472   -5.1147   21.6513 H   0  0  0  0  0  0  0  0  0  0  0  0
    9.4562   -4.0409   20.9743 H   0  0  0  0  0  0  0  0  0  0  0  0
    8.0506    3.4901   24.1946 H   0  0  0  0  0  0  0  0  0  0  0  0
    9.7653    3.9956   24.5458 H   0  0  0  0  0  0  0  0  0  0  0  0
    9.8740    2.3209   26.4118 H   0  0  0  0  0  0  0  0  0  0  0  0
    8.1591    1.8180   26.0577 H   0  0  0  0  0  0  0  0  0  0  0  0
   10.5736    1.6768   24.1055 H   0  0  0  0  0  0  0  0  0  0  0  0
   15.5091   -3.3427   23.3228 H   0  0  0  0  0  0  0  0  0  0  0  0
   13.8833   -3.8930   23.7192 H   0  0  0  0  0  0  0  0  0  0  0  0
   14.3539   -3.6937   22.0275 H   0  0  0  0  0  0  0  0  0  0  0  0
   15.1917   -1.2596   24.8189 H   0  0  0  0  0  0  0  0  0  0  0  0
   13.8298   -0.1801   24.5308 H   0  0  0  0  0  0  0  0  0  0  0  0
   13.5517   -1.7947   25.2024 H   0  0  0  0  0  0  0  0  0  0  0  0
   15.9713   -1.0765   22.4672 H   0  0  0  0  0  0  0  0  0  0  0  0
   14.8957   -1.3615   21.0992 H   0  0  0  0  0  0  0  0  0  0  0  0
   14.6799    0.0739   22.1219 H   0  0  0  0  0  0  0  0  0  0  0  0
    6.9477   -0.3235   22.2484 H   0  0  0  0  0  0  0  0  0  0  0  0
    8.1200    0.2322   24.0006 H   0  0  0  0  0  0  0  0  0  0  0  0
  1  2  2  0  0  0  0
  1  7  1  0  0  0  0
  2 10  1  0  0  0  0
  3  5  2  0  0  0  0
  3  9  1  0  0  0  0
  4  6  1  0  0  0  0
  4  9  2  0  0  0  0
  5 11  1  0  0  0  0
  6 11  2  0  0  0  0
  7 24  2  0  0  0  0
  8 10  2  0  0  0  0
  8 24  1  0  0  0  0
  9 23  1  0  0  0  0
 10 22  1  0  0  0  0
 11 26  1  0  0  0  0
 12 13  2  0  0  0  0
 13 14  1  0  0  0  0
 14 26  1  0  0  0  0
 14 27  2  0  0  0  0
 15 22  1  0  0  0  0
 15 25  1  0  0  0  0
 15 28  2  0  0  0  0
 16 17  1  0  0  0  0
 16 18  1  0  0  0  0
 17 18  1  0  0  0  0
 18 25  1  0  0  0  0
 19 23  1  0  0  0  0
 20 23  1  0  0  0  0
 21 23  1  0  0  0  0
 22 26  1  0  0  0  0
  1 29  1  0  0  0  0
  2 30  1  0  0  0  0
  3 31  1  0  0  0  0
  4 32  1  0  0  0  0
  5 33  1  0  0  0  0
  6 34  1  0  0  0  0
  7 35  1  0  0  0  0
  8 36  1  0  0  0  0
 12 37  1  0  0  0  0
 12 38  1  0  0  0  0
 13 39  1  0  0  0  0
 16 40  1  0  0  0  0
 16 41  1  0  0  0  0
 17 42  1  0  0  0  0
 17 43  1  0  0  0  0
 18 44  1  0  0  0  0
 19 45  1  0  0  0  0
 19 46  1  0  0  0  0
 19 47  1  0  0  0  0
 20 48  1  0  0  0  0
 20 49  1  0  0  0  0
 20 50  1  0  0  0  0
 21 51  1  0  0  0  0
 21 52  1  0  0  0  0
 21 53  1  0  0  0  0
 22 54  1  0  0  0  0
 25 55  1  0  0  0  0
M  END
> <series>
3-aminopyridine-like

> <r_inhibition_at_20_uM>
8.669871958666803

> <r_inhibition_at_50_uM>
33.304028462348015

> <r_IC50>

> <f_inhibition_at_20_uM>
25.405739999999998

> <f_inhibition_at_50_uM>
32.95042

> <f_avg_IC50>

> <f_avg_pIC50>

> <ASSAYED>
True

> <Hybrid2>
-10.598598

> <docked_fragment>
x0678

> <Mpro-_dock>
-5.293064

> <site>
active-noncovalent

$$$$
RAL-MED-2de63afb-14
  -OEChem-07042000473D

 36 38  0     1  0  0  0  0  0999 V2000
   11.4417    0.9929   22.7221 C   0  0  0  0  0  0  0  0  0  0  0  0
   12.4465   -1.0980   22.0473 C   0  0  0  0  0  0  0  0  0  0  0  0
   13.7678    0.5577   23.2091 C   0  0  0  0  0  0  0  0  0  0  0  0
    6.1685    0.7523   19.6749 C   0  0  0  0  0  0  0  0  0  0  0  0
    7.7957   -0.2703   18.3471 C   0  0  0  0  0  0  0  0  0  0  0  0
    6.2497    1.1235   17.4337 C   0  0  0  0  0  0  0  0  0  0  0  0
    7.2582   -0.0915   19.6055 C   0  0  0  0  0  0  0  0  0  0  0  0
   11.3362   -0.2559   22.1099 C   0  0  0  0  0  0  0  0  0  0  0  0
   12.6575    1.3998   23.2717 C   0  0  0  0  0  0  0  0  0  0  0  0
   13.6623   -0.6912   22.5970 C   0  0  0  0  0  0  0  0  0  0  0  0
   11.8567    5.6636   23.6813 C   0  0  0  0  0  0  0  0  0  0  0  0
    8.9046    0.0392   21.5227 C   0  0  0  0  0  0  0  0  0  0  0  0
   11.0909    4.4034   23.2476 C   0  0  0  0  0  0  0  0  0  0  0  0
   12.4839    3.7623   23.0617 C   0  0  1  0  0  0  0  0  0  0  0  0
    7.8251   -0.7723   20.8237 C   0  0  0  0  0  0  0  0  0  0  0  0
    5.6362    1.3787   18.6050 N   0  0  0  0  0  0  0  0  0  0  0  0
    7.3148    0.3237   17.2352 N   0  0  0  0  0  0  0  0  0  0  0  0
   13.0461    5.0285   23.5156 N   0  0  0  0  0  0  0  0  0  0  0  0
   10.1210   -0.6629   21.5586 N   0  0  0  0  0  0  0  0  0  0  0  0
   11.5712    6.7838   24.0361 O   0  0  0  0  0  0  0  0  0  0  0  0
    8.6911    1.1570   21.9809 O   0  0  0  0  0  0  0  0  0  0  0  0
   12.7606    2.6187   23.8686 O   0  0  0  0  0  0  0  0  0  0  0  0
   14.7292   -1.4989   22.5351 F   0  0  0  0  0  0  0  0  0  0  0  0
   10.5788    1.6530   22.7724 H   0  0  0  0  0  0  0  0  0  0  0  0
   12.3771   -2.0733   21.5724 H   0  0  0  0  0  0  0  0  0  0  0  0
   14.7177    0.8687   23.6353 H   0  0  0  0  0  0  0  0  0  0  0  0
    5.6736    0.9589   20.6187 H   0  0  0  0  0  0  0  0  0  0  0  0
    8.6542   -0.9149   18.1863 H   0  0  0  0  0  0  0  0  0  0  0  0
    5.8418    1.6131   16.5580 H   0  0  0  0  0  0  0  0  0  0  0  0
   10.4707    3.9728   24.0381 H   0  0  0  0  0  0  0  0  0  0  0  0
   10.5071    4.5270   22.3321 H   0  0  0  0  0  0  0  0  0  0  0  0
   12.7395    3.5672   22.0140 H   0  0  0  0  0  0  0  0  0  0  0  0
    7.0191   -0.9760   21.5402 H   0  0  0  0  0  0  0  0  0  0  0  0
    8.2442   -1.7456   20.5386 H   0  0  0  0  0  0  0  0  0  0  0  0
   13.9906    5.3627   23.6492 H   0  0  0  0  0  0  0  0  0  0  0  0
   10.1148   -1.5931   21.1242 H   0  0  0  0  0  0  0  0  0  0  0  0
  1  8  2  0  0  0  0
  1  9  1  0  0  0  0
  2  8  1  0  0  0  0
  2 10  2  0  0  0  0
  3  9  2  0  0  0  0
  3 10  1  0  0  0  0
  4  7  1  0  0  0  0
  4 16  2  0  0  0  0
  5  7  2  0  0  0  0
  5 17  1  0  0  0  0
  6 16  1  0  0  0  0
  6 17  2  0  0  0  0
  7 15  1  0  0  0  0
  8 19  1  0  0  0  0
  9 22  1  0  0  0  0
 10 23  1  0  0  0  0
 11 13  1  0  0  0  0
 11 18  1  0  0  0  0
 11 20  2  0  0  0  0
 12 15  1  0  0  0  0
 12 19  1  0  0  0  0
 12 21  2  0  0  0  0
 13 14  1  0  0  0  0
 14 18  1  0  0  0  0
 14 22  1  0  0  0  0
  1 24  1  0  0  0  0
  2 25  1  0  0  0  0
  3 26  1  0  0  0  0
  4 27  1  0  0  0  0
  5 28  1  0  0  0  0
  6 29  1  0  0  0  0
 13 30  1  0  0  0  0
 13 31  1  0  0  0  0
 14 32  1  0  0  0  0
 15 33  1  0  0  0  0
 15 34  1  0  0  0  0
 18 35  1  0  0  0  0
 19 36  1  0  0  0  0
M  END
> <series>
3-aminopyridine-like

> <r_inhibition_at_20_uM>

> <r_inhibition_at_50_uM>
45.74945463

> <r_IC50>

> <f_inhibition_at_20_uM>
52.84184000000001

> <f_inhibition_at_50_uM>
87.837815

> <f_avg_IC50>
24.94667484680678

> <f_avg_pIC50>
4.6029873334843225

> <ASSAYED>
True

> <Hybrid2>
-10.553001

> <docked_fragment>
x0678

> <Mpro-_dock>
-7.490936

> <site>
active-noncovalent

$$$$
JAG-UCB-a3ef7265-23
  -OEChem-07042000473D

 36 37  0     0  0  0  0  0  0999 V2000
   10.9224    0.2989   24.4709 C   0  0  0  0  0  0  0  0  0  0  0  0
    9.8435   -0.3836   23.9200 C   0  0  0  0  0  0  0  0  0  0  0  0
   12.2089   -0.2056   24.3168 C   0  0  0  0  0  0  0  0  0  0  0  0
    5.8060    1.5086   19.0563 C   0  0  0  0  0  0  0  0  0  0  0  0
    6.2327    1.0483   17.8210 C   0  0  0  0  0  0  0  0  0  0  0  0
    7.5684   -0.5560   18.7803 C   0  0  0  0  0  0  0  0  0  0  0  0
    6.3058    0.8820   20.1924 C   0  0  0  0  0  0  0  0  0  0  0  0
    7.2044   -0.1708   20.0605 C   0  0  0  0  0  0  0  0  0  0  0  0
   10.1022   -1.5567   23.2297 C   0  0  0  0  0  0  0  0  0  0  0  0
   12.3617   -1.3868   23.6089 C   0  0  0  0  0  0  0  0  0  0  0  0
    8.6421   -1.9022   21.1921 C   0  0  0  0  0  0  0  0  0  0  0  0
    6.5568    2.6531   21.9494 C   0  0  0  0  0  0  0  0  0  0  0  0
    5.8631    1.3583   21.5370 C   0  0  0  0  0  0  0  0  0  0  0  0
    8.9577   -2.3223   22.6190 C   0  0  0  0  0  0  0  0  0  0  0  0
   13.7283   -1.9575   23.4235 C   0  0  0  0  0  0  0  0  0  0  0  0
    7.1042    0.0285   17.6531 N   0  0  0  0  0  0  0  0  0  0  0  0
   11.3379   -2.0778   23.0593 N   0  0  0  0  0  0  0  0  0  0  0  0
    7.7330   -0.8308   21.1695 N   0  0  0  0  0  0  0  0  0  0  0  0
    9.1407   -2.4590   20.2192 O   0  0  0  0  0  0  0  0  0  0  0  0
   14.7151   -1.2114   24.0019 F   0  0  0  0  0  0  0  0  0  0  0  0
   13.8728   -3.2094   23.9492 F   0  0  0  0  0  0  0  0  0  0  0  0
   14.0757   -2.0692   22.1087 F   0  0  0  0  0  0  0  0  0  0  0  0
   10.7604    1.2211   25.0207 H   0  0  0  0  0  0  0  0  0  0  0  0
    8.8347   -0.0013   24.0342 H   0  0  0  0  0  0  0  0  0  0  0  0
   13.0594    0.3177   24.7404 H   0  0  0  0  0  0  0  0  0  0  0  0
    5.1040    2.3326   19.1248 H   0  0  0  0  0  0  0  0  0  0  0  0
    5.8726    1.5033   16.9042 H   0  0  0  0  0  0  0  0  0  0  0  0
    8.2657   -1.3715   18.6123 H   0  0  0  0  0  0  0  0  0  0  0  0
    7.6455    2.5334   21.9494 H   0  0  0  0  0  0  0  0  0  0  0  0
    6.2486    2.9526   22.9559 H   0  0  0  0  0  0  0  0  0  0  0  0
    6.3084    3.4686   21.2617 H   0  0  0  0  0  0  0  0  0  0  0  0
    4.7730    1.5131   21.5475 H   0  0  0  0  0  0  0  0  0  0  0  0
    6.0564    0.5864   22.2982 H   0  0  0  0  0  0  0  0  0  0  0  0
    9.1868   -3.3956   22.6269 H   0  0  0  0  0  0  0  0  0  0  0  0
    8.0581   -2.1895   23.2333 H   0  0  0  0  0  0  0  0  0  0  0  0
    7.4179   -0.4909   22.0858 H   0  0  0  0  0  0  0  0  0  0  0  0
  1  2  2  0  0  0  0
  1  3  1  0  0  0  0
  2  9  1  0  0  0  0
  3 10  2  0  0  0  0
  4  5  2  0  0  0  0
  4  7  1  0  0  0  0
  5 16  1  0  0  0  0
  6  8  1  0  0  0  0
  6 16  2  0  0  0  0
  7  8  2  0  0  0  0
  7 13  1  0  0  0  0
  8 18  1  0  0  0  0
  9 14  1  0  0  0  0
  9 17  2  0  0  0  0
 10 15  1  0  0  0  0
 10 17  1  0  0  0  0
 11 14  1  0  0  0  0
 11 18  1  0  0  0  0
 11 19  2  0  0  0  0
 12 13  1  0  0  0  0
 15 20  1  0  0  0  0
 15 21  1  0  0  0  0
 15 22  1  0  0  0  0
  1 23  1  0  0  0  0
  2 24  1  0  0  0  0
  3 25  1  0  0  0  0
  4 26  1  0  0  0  0
  5 27  1  0  0  0  0
  6 28  1  0  0  0  0
 12 29  1  0  0  0  0
 12 30  1  0  0  0  0
 12 31  1  0  0  0  0
 13 32  1  0  0  0  0
 13 33  1  0  0  0  0
 14 34  1  0  0  0  0
 14 35  1  0  0  0  0
 18 36  1  0  0  0  0
M  END
> <series>
3-aminopyridine-like

> <r_inhibition_at_20_uM>

> <r_inhibition_at_50_uM>
0.0

> <r_IC50>

> <f_inhibition_at_20_uM>
2.6263345

> <f_inhibition_at_50_uM>
10.079430499999999

> <f_avg_IC50>

> <f_avg_pIC50>

> <ASSAYED>
True

> <Hybrid2>
-10.550228

> <docked_fragment>
x0678

> <Mpro-_dock>
-5.652767

> <site>
active-noncovalent

$$$$
ALE-HEI-f28a35b5-5
  -OEChem-07042000473D

 26 27  0     0  0  0  0  0  0999 V2000
    5.5752    1.2562   18.9232 C   0  0  0  0  0  0  0  0  0  0  0  0
    6.1850    1.1022   20.1632 C   0  0  0  0  0  0  0  0  0  0  0  0
    6.3104    0.9325   17.7942 C   0  0  0  0  0  0  0  0  0  0  0  0
    8.1422    0.3397   19.0477 C   0  0  0  0  0  0  0  0  0  0  0  0
    7.4929    0.6358   20.2354 C   0  0  0  0  0  0  0  0  0  0  0  0
   13.2390   -1.3151   23.4231 C   0  0  0  0  0  0  0  0  0  0  0  0
   11.1486   -0.2236   23.4988 C   0  0  0  0  0  0  0  0  0  0  0  0
    9.5015    0.5812   21.7545 C   0  0  0  0  0  0  0  0  0  0  0  0
   14.4336   -2.1065   23.0655 C   0  0  0  0  0  0  0  0  0  0  0  0
    9.7715    0.3238   23.2286 C   0  0  0  0  0  0  0  0  0  0  0  0
    7.5827    0.4767   17.8246 N   0  0  0  0  0  0  0  0  0  0  0  0
   13.0823   -0.6384   24.5409 N   0  0  0  0  0  0  0  0  0  0  0  0
   11.8557    0.0009   24.5857 N   0  0  0  0  0  0  0  0  0  0  0  0
    8.1299    0.4716   21.4629 N   0  0  0  0  0  0  0  0  0  0  0  0
   10.3983    0.8452   20.9601 O   0  0  0  0  0  0  0  0  0  0  0  0
   11.9137   -1.2276   22.3378 S   0  0  0  0  0  0  0  0  0  0  0  0
    4.5565    1.6182   18.8430 H   0  0  0  0  0  0  0  0  0  0  0  0
    5.6325    1.3483   21.0661 H   0  0  0  0  0  0  0  0  0  0  0  0
    5.8803    1.0360   16.8035 H   0  0  0  0  0  0  0  0  0  0  0  0
    9.1639   -0.0282   19.0394 H   0  0  0  0  0  0  0  0  0  0  0  0
   14.3378   -3.1479   23.4130 H   0  0  0  0  0  0  0  0  0  0  0  0
   14.6022   -2.1302   21.9757 H   0  0  0  0  0  0  0  0  0  0  0  0
   15.3536   -1.6881   23.5078 H   0  0  0  0  0  0  0  0  0  0  0  0
    9.0160   -0.3764   23.6074 H   0  0  0  0  0  0  0  0  0  0  0  0
    9.6345    1.2617   23.7816 H   0  0  0  0  0  0  0  0  0  0  0  0
    7.5199    0.2409   22.2572 H   0  0  0  0  0  0  0  0  0  0  0  0
  1  2  2  0  0  0  0
  1  3  1  0  0  0  0
  2  5  1  0  0  0  0
  3 11  2  0  0  0  0
  4  5  2  0  0  0  0
  4 11  1  0  0  0  0
  5 14  1  0  0  0  0
  6  9  1  0  0  0  0
  6 12  2  0  0  0  0
  6 16  1  0  0  0  0
  7 10  1  0  0  0  0
  7 13  2  0  0  0  0
  7 16  1  0  0  0  0
  8 10  1  0  0  0  0
  8 14  1  0  0  0  0
  8 15  2  0  0  0  0
 12 13  1  0  0  0  0
  1 17  1  0  0  0  0
  2 18  1  0  0  0  0
  3 19  1  0  0  0  0
  4 20  1  0  0  0  0
  9 21  1  0  0  0  0
  9 22  1  0  0  0  0
  9 23  1  0  0  0  0
 10 24  1  0  0  0  0
 10 25  1  0  0  0  0
 14 26  1  0  0  0  0
M  END
> <series>
3-aminopyridine-like

> <r_inhibition_at_20_uM>
-1.825

> <r_inhibition_at_50_uM>
0.0

> <r_IC50>

> <f_inhibition_at_20_uM>
-1.16065575

> <f_inhibition_at_50_uM>
-0.0293793

> <f_avg_IC50>

> <f_avg_pIC50>

> <ASSAYED>
True

> <Hybrid2>
-10.544547

> <docked_fragment>
x0678

> <Mpro-_dock>
-5.121516

> <site>
active-noncovalent

$$$$
ANN-UNI-26382800-5
  -OEChem-07042000473D

 29 30  0     0  0  0  0  0  0999 V2000
   14.3074   -2.0761   23.5153 C   0  0  0  0  0  0  0  0  0  0  0  0
   12.2920    0.9869   22.8732 C   0  0  0  0  0  0  0  0  0  0  0  0
    6.1148    1.0253   19.2759 C   0  0  0  0  0  0  0  0  0  0  0  0
   13.3866    0.1383   23.0389 C   0  0  0  0  0  0  0  0  0  0  0  0
   10.9964    0.4897   23.0140 C   0  0  0  0  0  0  0  0  0  0  0  0
    6.7994    0.5069   20.3694 C   0  0  0  0  0  0  0  0  0  0  0  0
   11.8899   -1.7048   23.4860 C   0  0  0  0  0  0  0  0  0  0  0  0
    6.6360    0.7906   18.0137 C   0  0  0  0  0  0  0  0  0  0  0  0
    8.4059   -0.3993   18.8680 C   0  0  0  0  0  0  0  0  0  0  0  0
   13.1855   -1.2076   23.3452 C   0  0  0  0  0  0  0  0  0  0  0  0
   10.7953   -0.8562   23.3203 C   0  0  0  0  0  0  0  0  0  0  0  0
    7.9677   -0.2202   20.1702 C   0  0  0  0  0  0  0  0  0  0  0  0
    8.3724   -0.6635   22.6166 C   0  0  0  0  0  0  0  0  0  0  0  0
    9.4100   -1.3877   23.4706 C   0  0  0  0  0  0  0  0  0  0  0  0
   15.2186   -2.7814   23.6535 N   0  0  0  0  0  0  0  0  0  0  0  0
    7.7679    0.0892   17.7807 N   0  0  0  0  0  0  0  0  0  0  0  0
    8.6865   -0.7600   21.2633 N   0  0  0  0  0  0  0  0  0  0  0  0
    7.4108   -0.0888   23.1168 O   0  0  0  0  0  0  0  0  0  0  0  0
   12.4482    2.0347   22.6336 H   0  0  0  0  0  0  0  0  0  0  0  0
    5.2021    1.5951   19.4075 H   0  0  0  0  0  0  0  0  0  0  0  0
   14.3905    0.5407   22.9265 H   0  0  0  0  0  0  0  0  0  0  0  0
   10.1500    1.1588   22.8836 H   0  0  0  0  0  0  0  0  0  0  0  0
    6.4140    0.6752   21.3716 H   0  0  0  0  0  0  0  0  0  0  0  0
   11.7267   -2.7540   23.7238 H   0  0  0  0  0  0  0  0  0  0  0  0
    6.1399    1.1744   17.1284 H   0  0  0  0  0  0  0  0  0  0  0  0
    9.3110   -0.9579   18.6487 H   0  0  0  0  0  0  0  0  0  0  0  0
    9.3797   -2.4581   23.2084 H   0  0  0  0  0  0  0  0  0  0  0  0
    9.0895   -1.3259   24.5237 H   0  0  0  0  0  0  0  0  0  0  0  0
    9.5314   -1.2792   21.0336 H   0  0  0  0  0  0  0  0  0  0  0  0
  1 10  1  0  0  0  0
  1 15  3  0  0  0  0
  2  4  2  0  0  0  0
  2  5  1  0  0  0  0
  3  6  2  0  0  0  0
  3  8  1  0  0  0  0
  4 10  1  0  0  0  0
  5 11  2  0  0  0  0
  6 12  1  0  0  0  0
  7 10  2  0  0  0  0
  7 11  1  0  0  0  0
  8 16  2  0  0  0  0
  9 12  2  0  0  0  0
  9 16  1  0  0  0  0
 11 14  1  0  0  0  0
 12 17  1  0  0  0  0
 13 14  1  0  0  0  0
 13 17  1  0  0  0  0
 13 18  2  0  0  0  0
  2 19  1  0  0  0  0
  3 20  1  0  0  0  0
  4 21  1  0  0  0  0
  5 22  1  0  0  0  0
  6 23  1  0  0  0  0
  7 24  1  0  0  0  0
  8 25  1  0  0  0  0
  9 26  1  0  0  0  0
 14 27  1  0  0  0  0
 14 28  1  0  0  0  0
 17 29  1  0  0  0  0
M  END
> <series>
3-aminopyridine-like

> <r_inhibition_at_20_uM>
0.0

> <r_inhibition_at_50_uM>
11.54

> <r_IC50>

> <f_inhibition_at_20_uM>
11.40413

> <f_inhibition_at_50_uM>
24.96099

> <f_avg_IC50>

> <f_avg_pIC50>

> <ASSAYED>
True

> <Hybrid2>
-10.529879

> <docked_fragment>
x0678

> <Mpro-_dock>
-6.889636

> <site>
active-noncovalent

$$$$
DAR-DIA-23aa0b97-20
  -OEChem-07042000473D

 34 36  0     0  0  0  0  0  0999 V2000
   14.5035   -1.6332   23.3349 C   0  0  0  0  0  0  0  0  0  0  0  0
    3.8281    1.7710   20.0987 C   0  0  0  0  0  0  0  0  0  0  0  0
    4.4980    1.8697   21.3160 C   0  0  0  0  0  0  0  0  0  0  0  0
   13.9424   -0.7470   24.2544 C   0  0  0  0  0  0  0  0  0  0  0  0
   13.8698   -1.8655   22.1141 C   0  0  0  0  0  0  0  0  0  0  0  0
    4.5140    1.3625   18.9552 C   0  0  0  0  0  0  0  0  0  0  0  0
    5.8570    1.5604   21.3952 C   0  0  0  0  0  0  0  0  0  0  0  0
   12.7476   -0.0933   23.9532 C   0  0  0  0  0  0  0  0  0  0  0  0
   12.6750   -1.2117   21.8130 C   0  0  0  0  0  0  0  0  0  0  0  0
    6.6167    0.6349   17.9106 C   0  0  0  0  0  0  0  0  0  0  0  0
    8.5522    0.4302   19.1300 C   0  0  0  0  0  0  0  0  0  0  0  0
    5.8816    1.0486   19.0233 C   0  0  0  0  0  0  0  0  0  0  0  0
    6.5634    1.1473   20.2537 C   0  0  0  0  0  0  0  0  0  0  0  0
    7.9259    0.8302   20.3006 C   0  0  0  0  0  0  0  0  0  0  0  0
   12.1139   -0.3256   22.7325 C   0  0  0  0  0  0  0  0  0  0  0  0
    9.8614   -0.1219   21.6237 C   0  0  0  0  0  0  0  0  0  0  0  0
    8.7333    0.9035   21.5541 C   0  0  0  0  0  0  0  0  0  0  0  0
    7.9325    0.3243   17.9353 N   0  0  0  0  0  0  0  0  0  0  0  0
   10.9017    0.3379   22.4271 N   0  0  0  0  0  0  0  0  0  0  0  0
    9.8011   -1.1918   21.0264 O   0  0  0  0  0  0  0  0  0  0  0  0
   15.4343   -2.1418   23.5687 H   0  0  0  0  0  0  0  0  0  0  0  0
    2.7707    2.0122   20.0400 H   0  0  0  0  0  0  0  0  0  0  0  0
    3.9621    2.1878   22.2056 H   0  0  0  0  0  0  0  0  0  0  0  0
   14.4359   -0.5653   25.2045 H   0  0  0  0  0  0  0  0  0  0  0  0
   14.3076   -2.5548   21.3979 H   0  0  0  0  0  0  0  0  0  0  0  0
    3.9750    1.2907   18.0133 H   0  0  0  0  0  0  0  0  0  0  0  0
    6.3460    1.6496   22.3624 H   0  0  0  0  0  0  0  0  0  0  0  0
   12.3197    0.5953   24.6776 H   0  0  0  0  0  0  0  0  0  0  0  0
   12.1901   -1.4006   20.8584 H   0  0  0  0  0  0  0  0  0  0  0  0
    6.1525    0.5380   16.9329 H   0  0  0  0  0  0  0  0  0  0  0  0
    9.6073    0.1735   19.1161 H   0  0  0  0  0  0  0  0  0  0  0  0
    9.1762    1.9065   21.6647 H   0  0  0  0  0  0  0  0  0  0  0  0
    8.0847    0.7602   22.4333 H   0  0  0  0  0  0  0  0  0  0  0  0
   10.7756    1.2583   22.8432 H   0  0  0  0  0  0  0  0  0  0  0  0
  1  4  1  0  0  0  0
  1  5  2  0  0  0  0
  2  3  1  0  0  0  0
  2  6  2  0  0  0  0
  3  7  2  0  0  0  0
  4  8  2  0  0  0  0
  5  9  1  0  0  0  0
  6 12  1  0  0  0  0
  7 13  1  0  0  0  0
  8 15  1  0  0  0  0
  9 15  2  0  0  0  0
 10 12  2  0  0  0  0
 10 18  1  0  0  0  0
 11 14  1  0  0  0  0
 11 18  2  0  0  0  0
 12 13  1  0  0  0  0
 13 14  2  0  0  0  0
 14 17  1  0  0  0  0
 15 19  1  0  0  0  0
 16 17  1  0  0  0  0
 16 19  1  0  0  0  0
 16 20  2  0  0  0  0
  1 21  1  0  0  0  0
  2 22  1  0  0  0  0
  3 23  1  0  0  0  0
  4 24  1  0  0  0  0
  5 25  1  0  0  0  0
  6 26  1  0  0  0  0
  7 27  1  0  0  0  0
  8 28  1  0  0  0  0
  9 29  1  0  0  0  0
 10 30  1  0  0  0  0
 11 31  1  0  0  0  0
 17 32  1  0  0  0  0
 17 33  1  0  0  0  0
 19 34  1  0  0  0  0
M  END
> <series>
3-aminopyridine-like

> <r_inhibition_at_20_uM>
27.82

> <r_inhibition_at_50_uM>
62.475

> <r_IC50>
45.077469206238916

> <f_inhibition_at_20_uM>
31.64337

> <f_inhibition_at_50_uM>
57.79387

> <f_avg_IC50>
57.469669686673186

> <f_avg_pIC50>
4.24056129901503

> <ASSAYED>
True

> <Hybrid2>
-10.520862

> <docked_fragment>
x0678

> <Mpro-_dock>
-6.906503

> <site>
active-noncovalent

$$$$
BAR-COM-4e090d3a-14
  -OEChem-07042000473D

 36 38  0     0  0  0  0  0  0999 V2000
    7.0459   -2.4555   26.2241 C   0  0  0  0  0  0  0  0  0  0  0  0
   13.5985   -0.7267   24.0253 C   0  0  0  0  0  0  0  0  0  0  0  0
   13.4228   -0.1972   22.7469 C   0  0  0  0  0  0  0  0  0  0  0  0
   12.4902   -0.9809   24.8333 C   0  0  0  0  0  0  0  0  0  0  0  0
   12.1389    0.0782   22.2764 C   0  0  0  0  0  0  0  0  0  0  0  0
    6.1457    0.6516   19.2515 C   0  0  0  0  0  0  0  0  0  0  0  0
    6.3386    0.3836   17.8830 C   0  0  0  0  0  0  0  0  0  0  0  0
    8.8922   -0.8280   26.8802 C   0  0  0  0  0  0  0  0  0  0  0  0
    8.2617   -1.7482   26.0215 C   0  0  0  0  0  0  0  0  0  0  0  0
   11.2063   -0.7056   24.3628 C   0  0  0  0  0  0  0  0  0  0  0  0
   11.0306   -0.1760   23.0844 C   0  0  0  0  0  0  0  0  0  0  0  0
    7.4072    0.6012   19.7923 C   0  0  0  0  0  0  0  0  0  0  0  0
    9.0876   -1.8172   24.9262 C   0  0  0  0  0  0  0  0  0  0  0  0
    9.4135    0.6399   21.3339 C   0  0  0  0  0  0  0  0  0  0  0  0
    7.9066    0.7935   21.2003 C   0  0  0  0  0  0  0  0  0  0  0  0
    6.0530   -3.0331   26.3896 N   0  0  0  0  0  0  0  0  0  0  0  0
    7.6216    0.1783   17.5736 N   0  0  0  0  0  0  0  0  0  0  0  0
   10.0308   -0.3470   26.3742 N   0  0  0  0  0  0  0  0  0  0  0  0
    8.2464    0.3174   18.7553 N   0  0  0  0  0  0  0  0  0  0  0  0
   10.1224   -0.9675   25.1856 N   0  0  0  0  0  0  0  0  0  0  0  0
    9.0134   -2.5264   23.7778 N   0  0  0  0  0  0  0  0  0  0  0  0
    9.7551    0.1097   22.5869 N   0  0  0  0  0  0  0  0  0  0  0  0
   10.1868    0.9549   20.4350 O   0  0  0  0  0  0  0  0  0  0  0  0
   14.5983   -0.9410   24.3914 H   0  0  0  0  0  0  0  0  0  0  0  0
   14.2859    0.0007   22.1179 H   0  0  0  0  0  0  0  0  0  0  0  0
   12.6432   -1.3939   25.8275 H   0  0  0  0  0  0  0  0  0  0  0  0
   12.0153    0.4908   21.2782 H   0  0  0  0  0  0  0  0  0  0  0  0
    5.2200    0.8513   19.7712 H   0  0  0  0  0  0  0  0  0  0  0  0
    5.5976    0.3289   17.0984 H   0  0  0  0  0  0  0  0  0  0  0  0
    8.5731   -0.4848   27.8545 H   0  0  0  0  0  0  0  0  0  0  0  0
    7.6217    1.7908   21.5591 H   0  0  0  0  0  0  0  0  0  0  0  0
    7.4178    0.0700   21.8651 H   0  0  0  0  0  0  0  0  0  0  0  0
    9.2524    0.2055   18.7805 H   0  0  0  0  0  0  0  0  0  0  0  0
    8.2577   -3.2034   23.6014 H   0  0  0  0  0  0  0  0  0  0  0  0
    9.7577   -2.4939   23.0667 H   0  0  0  0  0  0  0  0  0  0  0  0
    8.9721   -0.0937   23.2166 H   0  0  0  0  0  0  0  0  0  0  0  0
  1  9  1  0  0  0  0
  1 16  3  0  0  0  0
  2  3  1  0  0  0  0
  2  4  2  0  0  0  0
  3  5  2  0  0  0  0
  4 10  1  0  0  0  0
  5 11  1  0  0  0  0
  6  7  1  0  0  0  0
  6 12  2  0  0  0  0
  7 17  2  0  0  0  0
  8  9  1  0  0  0  0
  8 18  2  0  0  0  0
  9 13  2  0  0  0  0
 10 11  2  0  0  0  0
 10 20  1  0  0  0  0
 11 22  1  0  0  0  0
 12 15  1  0  0  0  0
 12 19  1  0  0  0  0
 13 20  1  0  0  0  0
 13 21  1  0  0  0  0
 14 15  1  0  0  0  0
 14 22  1  0  0  0  0
 14 23  2  0  0  0  0
 17 19  1  0  0  0  0
 18 20  1  0  0  0  0
  2 24  1  0  0  0  0
  3 25  1  0  0  0  0
  4 26  1  0  0  0  0
  5 27  1  0  0  0  0
  6 28  1  0  0  0  0
  7 29  1  0  0  0  0
  8 30  1  0  0  0  0
 15 31  1  0  0  0  0
 15 32  1  0  0  0  0
 19 33  1  0  0  0  0
 21 34  1  0  0  0  0
 21 35  1  0  0  0  0
 22 36  1  0  0  0  0
M  END
> <series>
3-aminopyridine-like

> <r_inhibition_at_20_uM>
0.0

> <r_inhibition_at_50_uM>

> <r_IC50>

> <f_inhibition_at_20_uM>
-9.143885000000001

> <f_inhibition_at_50_uM>
2.959074

> <f_avg_IC50>

> <f_avg_pIC50>

> <ASSAYED>
True

> <Hybrid2>
-10.520853

> <docked_fragment>
x0678

> <Mpro-_dock>
-7.956631

> <site>
active-noncovalent

$$$$
ALE-HEI-f28a35b5-1
  -OEChem-07042000473D

 30 31  0     0  0  0  0  0  0999 V2000
   14.2238   -0.9928   23.9289 C   0  0  0  0  0  0  0  0  0  0  0  0
   13.2682   -0.4429   24.7832 C   0  0  0  0  0  0  0  0  0  0  0  0
   13.9351   -1.1595   22.5745 C   0  0  0  0  0  0  0  0  0  0  0  0
   12.0237   -0.0598   24.2832 C   0  0  0  0  0  0  0  0  0  0  0  0
   12.6905   -0.7765   22.0744 C   0  0  0  0  0  0  0  0  0  0  0  0
    5.7813    1.2555   18.8360 C   0  0  0  0  0  0  0  0  0  0  0  0
    6.3228    0.7972   17.6459 C   0  0  0  0  0  0  0  0  0  0  0  0
    8.3046    0.2321   18.6615 C   0  0  0  0  0  0  0  0  0  0  0  0
    6.5689    1.1841   19.9796 C   0  0  0  0  0  0  0  0  0  0  0  0
   11.7348   -0.2266   22.9288 C   0  0  0  0  0  0  0  0  0  0  0  0
    7.8559    0.6641   19.8992 C   0  0  0  0  0  0  0  0  0  0  0  0
   10.0066    0.0714   21.1003 C   0  0  0  0  0  0  0  0  0  0  0  0
    6.0104    1.6717   21.2761 C   0  0  0  0  0  0  0  0  0  0  0  0
    7.5686    0.2855   17.5287 N   0  0  0  0  0  0  0  0  0  0  0  0
   10.4900    0.1568   22.4288 N   0  0  0  0  0  0  0  0  0  0  0  0
    8.6957    0.5701   21.0340 N   0  0  0  0  0  0  0  0  0  0  0  0
   10.6450   -0.3740   20.1520 O   0  0  0  0  0  0  0  0  0  0  0  0
   15.1933   -1.2905   24.3178 H   0  0  0  0  0  0  0  0  0  0  0  0
   13.4930   -0.3121   25.8376 H   0  0  0  0  0  0  0  0  0  0  0  0
   14.6798   -1.5869   21.9093 H   0  0  0  0  0  0  0  0  0  0  0  0
   11.2867    0.3678   24.9585 H   0  0  0  0  0  0  0  0  0  0  0  0
   12.4767   -0.9111   21.0170 H   0  0  0  0  0  0  0  0  0  0  0  0
    4.7736    1.6559   18.8648 H   0  0  0  0  0  0  0  0  0  0  0  0
    5.7494    0.8311   16.7253 H   0  0  0  0  0  0  0  0  0  0  0  0
    9.2997   -0.1839   18.5348 H   0  0  0  0  0  0  0  0  0  0  0  0
    5.5003    0.8556   21.8008 H   0  0  0  0  0  0  0  0  0  0  0  0
    6.8021    2.0643   21.9261 H   0  0  0  0  0  0  0  0  0  0  0  0
    5.2940    2.4872   21.1173 H   0  0  0  0  0  0  0  0  0  0  0  0
    9.8384    0.5530   23.1143 H   0  0  0  0  0  0  0  0  0  0  0  0
    8.2947    0.9076   21.9055 H   0  0  0  0  0  0  0  0  0  0  0  0
  1  2  1  0  0  0  0
  1  3  2  0  0  0  0
  2  4  2  0  0  0  0
  3  5  1  0  0  0  0
  4 10  1  0  0  0  0
  5 10  2  0  0  0  0
  6  7  2  0  0  0  0
  6  9  1  0  0  0  0
  7 14  1  0  0  0  0
  8 11  1  0  0  0  0
  8 14  2  0  0  0  0
  9 11  2  0  0  0  0
  9 13  1  0  0  0  0
 10 15  1  0  0  0  0
 11 16  1  0  0  0  0
 12 15  1  0  0  0  0
 12 16  1  0  0  0  0
 12 17  2  0  0  0  0
  1 18  1  0  0  0  0
  2 19  1  0  0  0  0
  3 20  1  0  0  0  0
  4 21  1  0  0  0  0
  5 22  1  0  0  0  0
  6 23  1  0  0  0  0
  7 24  1  0  0  0  0
  8 25  1  0  0  0  0
 13 26  1  0  0  0  0
 13 27  1  0  0  0  0
 13 28  1  0  0  0  0
 15 29  1  0  0  0  0
 16 30  1  0  0  0  0
M  END
> <series>
3-aminopyridine-like

> <r_inhibition_at_20_uM>
0.0

> <r_inhibition_at_50_uM>
-0.17999999999999994

> <r_IC50>

> <f_inhibition_at_20_uM>

> <f_inhibition_at_50_uM>
21.06202

> <f_avg_IC50>

> <f_avg_pIC50>

> <ASSAYED>
True

> <Hybrid2>
-10.495522

> <docked_fragment>
x0678

> <Mpro-_dock>
-4.738038

> <site>
active-noncovalent

$$$$
ALP-POS-95b75b4d-2
  -OEChem-07042000473D

 32 33  0     0  0  0  0  0  0999 V2000
   12.4354   -2.4689   22.8926 C   0  0  0  0  0  0  0  0  0  0  0  0
   11.6653   -1.3746   22.4987 C   0  0  0  0  0  0  0  0  0  0  0  0
   13.5653   -2.2766   23.6877 C   0  0  0  0  0  0  0  0  0  0  0  0
    5.8644    0.8567   19.4922 C   0  0  0  0  0  0  0  0  0  0  0  0
   13.1550    0.1043   23.6949 C   0  0  0  0  0  0  0  0  0  0  0  0
    6.3483    0.6260   18.2145 C   0  0  0  0  0  0  0  0  0  0  0  0
    8.5278    0.6383   18.9411 C   0  0  0  0  0  0  0  0  0  0  0  0
   12.0252   -0.0881   22.8998 C   0  0  0  0  0  0  0  0  0  0  0  0
    6.7870    0.9797   20.5252 C   0  0  0  0  0  0  0  0  0  0  0  0
    8.1461    0.8698   20.2528 C   0  0  0  0  0  0  0  0  0  0  0  0
   13.9251   -0.9901   24.0888 C   0  0  0  0  0  0  0  0  0  0  0  0
   10.5064    0.8973   21.1318 C   0  0  0  0  0  0  0  0  0  0  0  0
    6.2931    1.2293   21.9124 C   0  0  0  0  0  0  0  0  0  0  0  0
   11.2020    1.0819   22.4782 C   0  0  0  0  0  0  0  0  0  0  0  0
    7.6609    0.5132   17.9113 N   0  0  0  0  0  0  0  0  0  0  0  0
    9.1236    0.9871   21.2694 N   0  0  0  0  0  0  0  0  0  0  0  0
   11.1389    0.6973   20.0998 O   0  0  0  0  0  0  0  0  0  0  0  0
   15.0273   -0.8026   24.8652 O   0  0  0  0  0  0  0  0  0  0  0  0
   12.1549   -3.4705   22.5807 H   0  0  0  0  0  0  0  0  0  0  0  0
   10.7870   -1.5342   21.8789 H   0  0  0  0  0  0  0  0  0  0  0  0
   14.1609   -3.1331   23.9911 H   0  0  0  0  0  0  0  0  0  0  0  0
    4.7977    0.9376   19.6712 H   0  0  0  0  0  0  0  0  0  0  0  0
   13.4382    1.1062   24.0089 H   0  0  0  0  0  0  0  0  0  0  0  0
    5.6699    0.5226   17.3740 H   0  0  0  0  0  0  0  0  0  0  0  0
    9.5739    0.5425   18.6655 H   0  0  0  0  0  0  0  0  0  0  0  0
    6.1181    0.2791   22.4300 H   0  0  0  0  0  0  0  0  0  0  0  0
    7.0176    1.8148   22.4917 H   0  0  0  0  0  0  0  0  0  0  0  0
    5.3562    1.8000   21.9027 H   0  0  0  0  0  0  0  0  0  0  0  0
   10.4290    1.2988   23.2339 H   0  0  0  0  0  0  0  0  0  0  0  0
   11.8279    1.9875   22.4184 H   0  0  0  0  0  0  0  0  0  0  0  0
    8.7753    1.1569   22.2107 H   0  0  0  0  0  0  0  0  0  0  0  0
   15.1452    0.1409   25.0595 H   0  0  0  0  0  0  0  0  0  0  0  0
  1  2  2  0  0  0  0
  1  3  1  0  0  0  0
  2  8  1  0  0  0  0
  3 11  2  0  0  0  0
  4  6  2  0  0  0  0
  4  9  1  0  0  0  0
  5  8  2  0  0  0  0
  5 11  1  0  0  0  0
  6 15  1  0  0  0  0
  7 10  1  0  0  0  0
  7 15  2  0  0  0  0
  8 14  1  0  0  0  0
  9 10  2  0  0  0  0
  9 13  1  0  0  0  0
 10 16  1  0  0  0  0
 11 18  1  0  0  0  0
 12 14  1  0  0  0  0
 12 16  1  0  0  0  0
 12 17  2  0  0  0  0
  1 19  1  0  0  0  0
  2 20  1  0  0  0  0
  3 21  1  0  0  0  0
  4 22  1  0  0  0  0
  5 23  1  0  0  0  0
  6 24  1  0  0  0  0
  7 25  1  0  0  0  0
 13 26  1  0  0  0  0
 13 27  1  0  0  0  0
 13 28  1  0  0  0  0
 14 29  1  0  0  0  0
 14 30  1  0  0  0  0
 16 31  1  0  0  0  0
 18 32  1  0  0  0  0
M  END
> <series>
3-aminopyridine-like

> <r_inhibition_at_20_uM>

> <r_inhibition_at_50_uM>
1.0435961075

> <r_IC50>

> <f_inhibition_at_20_uM>
-7.019247

> <f_inhibition_at_50_uM>
6.459908

> <f_avg_IC50>

> <f_avg_pIC50>

> <ASSAYED>
True

> <Hybrid2>
-10.460533

> <docked_fragment>
x0678

> <Mpro-_dock>
-7.0762

> <site>
active-noncovalent

$$$$
EDG-MED-0da5ad92-12
  -OEChem-07042000473D

 31 32  0     0  0  0  0  0  0999 V2000
   12.7702   -0.0678   24.2076 C   0  0  0  0  0  0  0  0  0  0  0  0
   11.5251   -0.6929   24.2727 C   0  0  0  0  0  0  0  0  0  0  0  0
   13.6296   -0.3342   23.1417 C   0  0  0  0  0  0  0  0  0  0  0  0
    6.9547   -0.0622   20.6814 C   0  0  0  0  0  0  0  0  0  0  0  0
   11.9986   -1.8512   22.2059 C   0  0  0  0  0  0  0  0  0  0  0  0
    6.6977    0.6304   18.4207 C   0  0  0  0  0  0  0  0  0  0  0  0
    8.5852   -0.5363   19.0161 C   0  0  0  0  0  0  0  0  0  0  0  0
   11.1393   -1.5847   23.2719 C   0  0  0  0  0  0  0  0  0  0  0  0
    6.1970    0.5850   19.7118 C   0  0  0  0  0  0  0  0  0  0  0  0
    8.1730   -0.6362   20.3351 C   0  0  0  0  0  0  0  0  0  0  0  0
   13.2438   -1.2259   22.1409 C   0  0  0  0  0  0  0  0  0  0  0  0
    8.6881   -1.4798   22.6520 C   0  0  0  0  0  0  0  0  0  0  0  0
    4.8899    1.2086   20.0506 C   0  0  0  0  0  0  0  0  0  0  0  0
    9.8082   -2.2537   23.3427 C   0  0  0  0  0  0  0  0  0  0  0  0
    7.8765    0.0845   18.0465 N   0  0  0  0  0  0  0  0  0  0  0  0
    8.9674   -1.3008   21.2995 N   0  0  0  0  0  0  0  0  0  0  0  0
    7.6979   -1.0921   23.2637 O   0  0  0  0  0  0  0  0  0  0  0  0
   14.3050   -1.5552   20.8266 Cl  0  0  0  0  0  0  0  0  0  0  0  0
   13.0703    0.6265   24.9873 H   0  0  0  0  0  0  0  0  0  0  0  0
   10.8619   -0.4794   25.1069 H   0  0  0  0  0  0  0  0  0  0  0  0
   14.5972    0.1601   23.1042 H   0  0  0  0  0  0  0  0  0  0  0  0
    6.5944   -0.1170   21.7062 H   0  0  0  0  0  0  0  0  0  0  0  0
   11.6930   -2.5468   21.4278 H   0  0  0  0  0  0  0  0  0  0  0  0
    6.1510    1.1223   17.6221 H   0  0  0  0  0  0  0  0  0  0  0  0
    9.5270   -0.9639   18.6855 H   0  0  0  0  0  0  0  0  0  0  0  0
    5.0287    2.2547   20.3551 H   0  0  0  0  0  0  0  0  0  0  0  0
    4.2000    1.1874   19.1951 H   0  0  0  0  0  0  0  0  0  0  0  0
    4.3896    0.6743   20.8709 H   0  0  0  0  0  0  0  0  0  0  0  0
    9.8591   -3.2571   22.8886 H   0  0  0  0  0  0  0  0  0  0  0  0
    9.5163   -2.4127   24.3939 H   0  0  0  0  0  0  0  0  0  0  0  0
    9.8451   -1.6937   20.9656 H   0  0  0  0  0  0  0  0  0  0  0  0
  1  2  2  0  0  0  0
  1  3  1  0  0  0  0
  2  8  1  0  0  0  0
  3 11  2  0  0  0  0
  4  9  2  0  0  0  0
  4 10  1  0  0  0  0
  5  8  2  0  0  0  0
  5 11  1  0  0  0  0
  6  9  1  0  0  0  0
  6 15  2  0  0  0  0
  7 10  2  0  0  0  0
  7 15  1  0  0  0  0
  8 14  1  0  0  0  0
  9 13  1  0  0  0  0
 10 16  1  0  0  0  0
 11 18  1  0  0  0  0
 12 14  1  0  0  0  0
 12 16  1  0  0  0  0
 12 17  2  0  0  0  0
  1 19  1  0  0  0  0
  2 20  1  0  0  0  0
  3 21  1  0  0  0  0
  4 22  1  0  0  0  0
  5 23  1  0  0  0  0
  6 24  1  0  0  0  0
  7 25  1  0  0  0  0
 13 26  1  0  0  0  0
 13 27  1  0  0  0  0
 13 28  1  0  0  0  0
 14 29  1  0  0  0  0
 14 30  1  0  0  0  0
 16 31  1  0  0  0  0
M  END
> <series>
3-aminopyridine-like

> <r_inhibition_at_20_uM>

> <r_inhibition_at_50_uM>
38.63234517589564

> <r_IC50>

> <f_inhibition_at_20_uM>
19.840895

> <f_inhibition_at_50_uM>
42.669205

> <f_avg_IC50>

> <f_avg_pIC50>

> <ASSAYED>
True

> <Hybrid2>
-10.457814

> <docked_fragment>
x0678

> <Mpro-_dock>
-5.894294

> <site>
active-noncovalent

$$$$
TRY-UNI-714a760b-5
  -OEChem-07042000473D

 31 32  0     0  0  0  0  0  0999 V2000
   14.4414   -2.1141   23.0676 C   0  0  0  0  0  0  0  0  0  0  0  0
   13.9030   -1.3728   24.1193 C   0  0  0  0  0  0  0  0  0  0  0  0
   14.0714   -1.8301   21.7530 C   0  0  0  0  0  0  0  0  0  0  0  0
   12.9945   -0.3476   23.8565 C   0  0  0  0  0  0  0  0  0  0  0  0
   13.1629   -0.8049   21.4902 C   0  0  0  0  0  0  0  0  0  0  0  0
    6.0123    0.3635   19.9815 C   0  0  0  0  0  0  0  0  0  0  0  0
    6.3437    0.1960   18.6466 C   0  0  0  0  0  0  0  0  0  0  0  0
    8.5897    0.3967   19.0865 C   0  0  0  0  0  0  0  0  0  0  0  0
   12.6244   -0.0636   22.5419 C   0  0  0  0  0  0  0  0  0  0  0  0
    7.0473    0.5555   20.8899 C   0  0  0  0  0  0  0  0  0  0  0  0
    8.3635    0.5739   20.4420 C   0  0  0  0  0  0  0  0  0  0  0  0
   10.8066    0.8042   21.0103 C   0  0  0  0  0  0  0  0  0  0  0  0
    6.7185    0.7394   22.3352 C   0  0  0  0  0  0  0  0  0  0  0  0
   11.6527    1.0324   22.2602 C   0  0  0  0  0  0  0  0  0  0  0  0
    7.6103    0.2077   18.1740 N   0  0  0  0  0  0  0  0  0  0  0  0
    9.4511    0.7655   21.3270 N   0  0  0  0  0  0  0  0  0  0  0  0
   11.3141    0.6774   19.9005 O   0  0  0  0  0  0  0  0  0  0  0  0
   15.1499   -2.9115   23.2723 H   0  0  0  0  0  0  0  0  0  0  0  0
   14.1919   -1.5931   25.1429 H   0  0  0  0  0  0  0  0  0  0  0  0
   14.4913   -2.4063   20.9339 H   0  0  0  0  0  0  0  0  0  0  0  0
   12.5799    0.2247   24.6823 H   0  0  0  0  0  0  0  0  0  0  0  0
   12.8803   -0.5908   20.4628 H   0  0  0  0  0  0  0  0  0  0  0  0
    4.9751    0.3442   20.2983 H   0  0  0  0  0  0  0  0  0  0  0  0
    5.5732    0.0430   17.8981 H   0  0  0  0  0  0  0  0  0  0  0  0
    9.5952    0.4007   18.6762 H   0  0  0  0  0  0  0  0  0  0  0  0
    6.6975   -0.2301   22.8462 H   0  0  0  0  0  0  0  0  0  0  0  0
    7.4577    1.3802   22.8313 H   0  0  0  0  0  0  0  0  0  0  0  0
    5.7415    1.2223   22.4610 H   0  0  0  0  0  0  0  0  0  0  0  0
   10.9689    1.1670   23.1145 H   0  0  0  0  0  0  0  0  0  0  0  0
   12.1829    1.9919   22.1439 H   0  0  0  0  0  0  0  0  0  0  0  0
    9.2151    0.8894   22.3094 H   0  0  0  0  0  0  0  0  0  0  0  0
  1  2  1  0  0  0  0
  1  3  2  0  0  0  0
  2  4  2  0  0  0  0
  3  5  1  0  0  0  0
  4  9  1  0  0  0  0
  5  9  2  0  0  0  0
  6  7  2  0  0  0  0
  6 10  1  0  0  0  0
  7 15  1  0  0  0  0
  8 11  1  0  0  0  0
  8 15  2  0  0  0  0
  9 14  1  0  0  0  0
 10 11  2  0  0  0  0
 10 13  1  0  0  0  0
 11 16  1  0  0  0  0
 12 14  1  0  0  0  0
 12 16  1  0  0  0  0
 12 17  2  0  0  0  0
  1 18  1  0  0  0  0
  2 19  1  0  0  0  0
  3 20  1  0  0  0  0
  4 21  1  0  0  0  0
  5 22  1  0  0  0  0
  6 23  1  0  0  0  0
  7 24  1  0  0  0  0
  8 25  1  0  0  0  0
 13 26  1  0  0  0  0
 13 27  1  0  0  0  0
 13 28  1  0  0  0  0
 14 29  1  0  0  0  0
 14 30  1  0  0  0  0
 16 31  1  0  0  0  0
M  END
> <series>
3-aminopyridine-like

> <r_inhibition_at_20_uM>
-0.6299999999999999

> <r_inhibition_at_50_uM>
16.1

> <r_IC50>

> <f_inhibition_at_20_uM>
8.187834500000001

> <f_inhibition_at_50_uM>
19.47383

> <f_avg_IC50>

> <f_avg_pIC50>

> <ASSAYED>
True

> <Hybrid2>
-10.434412

> <docked_fragment>
x0678

> <Mpro-_dock>
-6.707099

> <site>
active-noncovalent

$$$$
RAL-MED-2de63afb-2
  -OEChem-07042000473D

 39 41  0     1  0  0  0  0  0999 V2000
   12.2229   -1.1523   22.1530 C   0  0  0  0  0  0  0  0  0  0  0  0
   13.6274    0.4804   23.2478 C   0  0  0  0  0  0  0  0  0  0  0  0
   11.3118    0.9934   22.7876 C   0  0  0  0  0  0  0  0  0  0  0  0
    5.9776    0.8815   19.8428 C   0  0  0  0  0  0  0  0  0  0  0  0
    7.5385   -0.2384   18.5139 C   0  0  0  0  0  0  0  0  0  0  0  0
    6.0309    1.1911   17.5914 C   0  0  0  0  0  0  0  0  0  0  0  0
   13.4629   -0.7791   22.6714 C   0  0  0  0  0  0  0  0  0  0  0  0
    7.0322   -0.0061   19.7764 C   0  0  0  0  0  0  0  0  0  0  0  0
   11.1473   -0.2660   22.2111 C   0  0  0  0  0  0  0  0  0  0  0  0
   12.5518    1.3667   23.3060 C   0  0  0  0  0  0  0  0  0  0  0  0
   11.9237    5.6678   23.6144 C   0  0  0  0  0  0  0  0  0  0  0  0
    8.7183    0.1093   21.6597 C   0  0  0  0  0  0  0  0  0  0  0  0
   11.1021    4.4275   23.2275 C   0  0  0  0  0  0  0  0  0  0  0  0
   12.4658    3.7279   23.0355 C   0  0  1  0  0  0  0  0  0  0  0  0
   14.6130   -1.7263   22.6092 C   0  0  0  0  0  0  0  0  0  0  0  0
    7.5951   -0.6768   21.0020 C   0  0  0  0  0  0  0  0  0  0  0  0
    5.4500    1.5005   18.7663 N   0  0  0  0  0  0  0  0  0  0  0  0
    7.0601    0.3450   17.3953 N   0  0  0  0  0  0  0  0  0  0  0  0
   13.0845    4.9825   23.4459 N   0  0  0  0  0  0  0  0  0  0  0  0
    9.9068   -0.6390   21.6926 N   0  0  0  0  0  0  0  0  0  0  0  0
   11.6881    6.8072   23.9438 O   0  0  0  0  0  0  0  0  0  0  0  0
    8.5572    1.2462   22.0918 O   0  0  0  0  0  0  0  0  0  0  0  0
   12.7124    2.5957   23.8681 O   0  0  0  0  0  0  0  0  0  0  0  0
   12.0974   -2.1347   21.7032 H   0  0  0  0  0  0  0  0  0  0  0  0
   14.5929    0.7741   23.6527 H   0  0  0  0  0  0  0  0  0  0  0  0
   10.4761    1.6878   22.8350 H   0  0  0  0  0  0  0  0  0  0  0  0
    5.5091    1.1319   20.7895 H   0  0  0  0  0  0  0  0  0  0  0  0
    8.3680   -0.9203   18.3549 H   0  0  0  0  0  0  0  0  0  0  0  0
    5.6259    1.6736   16.7104 H   0  0  0  0  0  0  0  0  0  0  0  0
   10.4799    4.0423   24.0395 H   0  0  0  0  0  0  0  0  0  0  0  0
   10.5073    4.5500   22.3190 H   0  0  0  0  0  0  0  0  0  0  0  0
   12.6949    3.4956   21.9893 H   0  0  0  0  0  0  0  0  0  0  0  0
   15.1747   -1.5847   21.6777 H   0  0  0  0  0  0  0  0  0  0  0  0
   15.2978   -1.5779   23.4543 H   0  0  0  0  0  0  0  0  0  0  0  0
   14.2733   -2.7693   22.6554 H   0  0  0  0  0  0  0  0  0  0  0  0
    6.7955   -0.8300   21.7380 H   0  0  0  0  0  0  0  0  0  0  0  0
    7.9705   -1.6729   20.7355 H   0  0  0  0  0  0  0  0  0  0  0  0
   14.0435    5.2828   23.5546 H   0  0  0  0  0  0  0  0  0  0  0  0
    9.8562   -1.5791   21.2833 H   0  0  0  0  0  0  0  0  0  0  0  0
  1  7  1  0  0  0  0
  1  9  2  0  0  0  0
  2  7  2  0  0  0  0
  2 10  1  0  0  0  0
  3  9  1  0  0  0  0
  3 10  2  0  0  0  0
  4  8  1  0  0  0  0
  4 17  2  0  0  0  0
  5  8  2  0  0  0  0
  5 18  1  0  0  0  0
  6 17  1  0  0  0  0
  6 18  2  0  0  0  0
  7 15  1  0  0  0  0
  8 16  1  0  0  0  0
  9 20  1  0  0  0  0
 10 23  1  0  0  0  0
 11 13  1  0  0  0  0
 11 19  1  0  0  0  0
 11 21  2  0  0  0  0
 12 16  1  0  0  0  0
 12 20  1  0  0  0  0
 12 22  2  0  0  0  0
 13 14  1  0  0  0  0
 14 19  1  0  0  0  0
 14 23  1  0  0  0  0
  1 24  1  0  0  0  0
  2 25  1  0  0  0  0
  3 26  1  0  0  0  0
  4 27  1  0  0  0  0
  5 28  1  0  0  0  0
  6 29  1  0  0  0  0
 13 30  1  0  0  0  0
 13 31  1  0  0  0  0
 14 32  1  0  0  0  0
 15 33  1  0  0  0  0
 15 34  1  0  0  0  0
 15 35  1  0  0  0  0
 16 36  1  0  0  0  0
 16 37  1  0  0  0  0
 19 38  1  0  0  0  0
 20 39  1  0  0  0  0
M  END
> <series>
3-aminopyridine-like

> <r_inhibition_at_20_uM>

> <r_inhibition_at_50_uM>
44.951235785

> <r_IC50>

> <f_inhibition_at_20_uM>
49.30711

> <f_inhibition_at_50_uM>
72.72272000000002

> <f_avg_IC50>
34.319907335359666

> <f_avg_pIC50>
4.46445389342812

> <ASSAYED>
True

> <Hybrid2>
-10.388515

> <docked_fragment>
x0678

> <Mpro-_dock>
-7.080396

> <site>
active-noncovalent

$$$$
TRY-UNI-714a760b-6
  -OEChem-07042000473D

 31 32  0     0  0  0  0  0  0999 V2000
   11.9931    0.6923   24.2939 C   0  0  0  0  0  0  0  0  0  0  0  0
   10.7591    0.2220   23.8450 C   0  0  0  0  0  0  0  0  0  0  0  0
   13.1375   -0.0889   24.1334 C   0  0  0  0  0  0  0  0  0  0  0  0
    5.5073    1.3894   18.9945 C   0  0  0  0  0  0  0  0  0  0  0  0
   11.8137   -1.8109   23.0754 C   0  0  0  0  0  0  0  0  0  0  0  0
    6.1456    1.1224   17.7940 C   0  0  0  0  0  0  0  0  0  0  0  0
    7.8068   -0.0712   18.8400 C   0  0  0  0  0  0  0  0  0  0  0  0
   10.6693   -1.0296   23.2358 C   0  0  0  0  0  0  0  0  0  0  0  0
    6.0747    0.8853   20.1595 C   0  0  0  0  0  0  0  0  0  0  0  0
    7.2465    0.1401   20.0894 C   0  0  0  0  0  0  0  0  0  0  0  0
   13.0478   -1.3405   23.5242 C   0  0  0  0  0  0  0  0  0  0  0  0
    9.0280   -1.1530   21.3138 C   0  0  0  0  0  0  0  0  0  0  0  0
    5.4079    1.1586   21.4677 C   0  0  0  0  0  0  0  0  0  0  0  0
    9.3493   -1.5323   22.7572 C   0  0  0  0  0  0  0  0  0  0  0  0
    7.2848    0.4025   17.6863 N   0  0  0  0  0  0  0  0  0  0  0  0
    7.8621   -0.3944   21.2462 N   0  0  0  0  0  0  0  0  0  0  0  0
    9.7419   -1.5027   20.3794 O   0  0  0  0  0  0  0  0  0  0  0  0
   14.4599   -2.3044   23.3276 Cl  0  0  0  0  0  0  0  0  0  0  0  0
   12.0625    1.6669   24.7683 H   0  0  0  0  0  0  0  0  0  0  0  0
    9.8726    0.8374   23.9742 H   0  0  0  0  0  0  0  0  0  0  0  0
   14.0927    0.2903   24.4884 H   0  0  0  0  0  0  0  0  0  0  0  0
    4.5942    1.9745   19.0148 H   0  0  0  0  0  0  0  0  0  0  0  0
   11.7386   -2.7858   22.5993 H   0  0  0  0  0  0  0  0  0  0  0  0
    5.7436    1.4931   16.8568 H   0  0  0  0  0  0  0  0  0  0  0  0
    8.7209   -0.6453   18.7203 H   0  0  0  0  0  0  0  0  0  0  0  0
    4.6846    0.3677   21.6978 H   0  0  0  0  0  0  0  0  0  0  0  0
    6.1403    1.2105   22.2826 H   0  0  0  0  0  0  0  0  0  0  0  0
    4.8807    2.1205   21.4504 H   0  0  0  0  0  0  0  0  0  0  0  0
    9.3055   -2.6310   22.8384 H   0  0  0  0  0  0  0  0  0  0  0  0
    8.5393   -1.1498   23.3998 H   0  0  0  0  0  0  0  0  0  0  0  0
    7.3987   -0.2020   22.1319 H   0  0  0  0  0  0  0  0  0  0  0  0
  1  2  2  0  0  0  0
  1  3  1  0  0  0  0
  2  8  1  0  0  0  0
  3 11  2  0  0  0  0
  4  6  2  0  0  0  0
  4  9  1  0  0  0  0
  5  8  2  0  0  0  0
  5 11  1  0  0  0  0
  6 15  1  0  0  0  0
  7 10  1  0  0  0  0
  7 15  2  0  0  0  0
  8 14  1  0  0  0  0
  9 10  2  0  0  0  0
  9 13  1  0  0  0  0
 10 16  1  0  0  0  0
 11 18  1  0  0  0  0
 12 14  1  0  0  0  0
 12 16  1  0  0  0  0
 12 17  2  0  0  0  0
  1 19  1  0  0  0  0
  2 20  1  0  0  0  0
  3 21  1  0  0  0  0
  4 22  1  0  0  0  0
  5 23  1  0  0  0  0
  6 24  1  0  0  0  0
  7 25  1  0  0  0  0
 13 26  1  0  0  0  0
 13 27  1  0  0  0  0
 13 28  1  0  0  0  0
 14 29  1  0  0  0  0
 14 30  1  0  0  0  0
 16 31  1  0  0  0  0
M  END
> <series>
3-aminopyridine-like

> <r_inhibition_at_20_uM>
20.025239300000006

> <r_inhibition_at_50_uM>

> <r_IC50>
13.895164921785092

> <f_inhibition_at_20_uM>
61.634345

> <f_inhibition_at_50_uM>
81.75695999999999

> <f_avg_IC50>
24.56661919544255

> <f_avg_pIC50>
4.609654606067284

> <ASSAYED>
True

> <Hybrid2>
-10.387289

> <docked_fragment>
x0678

> <Mpro-_dock>
-6.524484

> <site>
active-noncovalent

$$$$
JAN-GHE-83b26c96-6
  -OEChem-07042000473D

 39 40  0     1  0  0  0  0  0999 V2000
   11.5171    0.0576   24.9438 C   0  0  0  0  0  0  0  0  0  0  0  0
   10.2677   -0.3858   24.5103 C   0  0  0  0  0  0  0  0  0  0  0  0
   12.6788   -0.4770   24.3867 C   0  0  0  0  0  0  0  0  0  0  0  0
   11.3416   -1.8986   22.9626 C   0  0  0  0  0  0  0  0  0  0  0  0
    7.5473   -0.5481   18.9564 C   0  0  0  0  0  0  0  0  0  0  0  0
    6.0044    0.6889   17.8357 C   0  0  0  0  0  0  0  0  0  0  0  0
   10.1800   -1.3640   23.5197 C   0  0  0  0  0  0  0  0  0  0  0  0
    6.9751   -0.2198   20.1685 C   0  0  0  0  0  0  0  0  0  0  0  0
   12.5911   -1.4551   23.3961 C   0  0  0  0  0  0  0  0  0  0  0  0
    5.8715    0.6062   20.1034 C   0  0  0  0  0  0  0  0  0  0  0  0
    8.6066   -1.5399   21.5623 C   0  0  0  0  0  0  0  0  0  0  0  0
    8.6338   -3.3375   23.3452 C   0  0  0  0  0  0  0  0  0  0  0  0
    3.7093    0.5359   21.3971 C   0  0  0  0  0  0  0  0  0  0  0  0
    5.2107    2.5544   21.5601 C   0  0  0  0  0  0  0  0  0  0  0  0
    8.8437   -1.8385   23.0576 C   0  0  1  0  0  0  0  0  0  0  0  0
    5.1666    1.0299   21.3507 C   0  0  0  0  0  0  0  0  0  0  0  0
    7.0862   -0.1100   17.7666 N   0  0  0  0  0  0  0  0  0  0  0  0
    5.3575    1.0810   18.9499 N   0  0  0  0  0  0  0  0  0  0  0  0
    7.5022   -0.7097   21.3869 N   0  0  0  0  0  0  0  0  0  0  0  0
    9.3444   -1.9850   20.6878 O   0  0  0  0  0  0  0  0  0  0  0  0
   14.0247   -2.1152   22.7099 Cl  0  0  0  0  0  0  0  0  0  0  0  0
   11.5850    0.8192   25.7153 H   0  0  0  0  0  0  0  0  0  0  0  0
    9.3678    0.0362   24.9501 H   0  0  0  0  0  0  0  0  0  0  0  0
   13.6458   -0.1221   24.7345 H   0  0  0  0  0  0  0  0  0  0  0  0
   11.2679   -2.6607   22.1902 H   0  0  0  0  0  0  0  0  0  0  0  0
    8.4199   -1.1915   18.8965 H   0  0  0  0  0  0  0  0  0  0  0  0
    5.6112    1.0536   16.8943 H   0  0  0  0  0  0  0  0  0  0  0  0
    9.3922   -3.9517   22.8469 H   0  0  0  0  0  0  0  0  0  0  0  0
    8.6897   -3.5569   24.4174 H   0  0  0  0  0  0  0  0  0  0  0  0
    7.6492   -3.6613   22.9897 H   0  0  0  0  0  0  0  0  0  0  0  0
    3.1239    0.9254   20.5570 H   0  0  0  0  0  0  0  0  0  0  0  0
    3.2115    0.8476   22.3217 H   0  0  0  0  0  0  0  0  0  0  0  0
    3.6739   -0.5583   21.3497 H   0  0  0  0  0  0  0  0  0  0  0  0
    4.7292    3.0705   20.7220 H   0  0  0  0  0  0  0  0  0  0  0  0
    6.2418    2.9178   21.6297 H   0  0  0  0  0  0  0  0  0  0  0  0
    4.6915    2.8512   22.4779 H   0  0  0  0  0  0  0  0  0  0  0  0
    8.0335   -1.3134   23.6016 H   0  0  0  0  0  0  0  0  0  0  0  0
    5.6678    0.5862   22.2309 H   0  0  0  0  0  0  0  0  0  0  0  0
    7.0079   -0.4092   22.2243 H   0  0  0  0  0  0  0  0  0  0  0  0
  1  2  2  0  0  0  0
  1  3  1  0  0  0  0
  2  7  1  0  0  0  0
  3  9  2  0  0  0  0
  4  7  2  0  0  0  0
  4  9  1  0  0  0  0
  5  8  1  0  0  0  0
  5 17  2  0  0  0  0
  6 17  1  0  0  0  0
  6 18  2  0  0  0  0
  7 15  1  0  0  0  0
  8 10  2  0  0  0  0
  8 19  1  0  0  0  0
  9 21  1  0  0  0  0
 10 16  1  0  0  0  0
 10 18  1  0  0  0  0
 11 15  1  0  0  0  0
 11 19  1  0  0  0  0
 11 20  2  0  0  0  0
 12 15  1  0  0  0  0
 13 16  1  0  0  0  0
 14 16  1  0  0  0  0
  1 22  1  0  0  0  0
  2 23  1  0  0  0  0
  3 24  1  0  0  0  0
  4 25  1  0  0  0  0
  5 26  1  0  0  0  0
  6 27  1  0  0  0  0
 12 28  1  0  0  0  0
 12 29  1  0  0  0  0
 12 30  1  0  0  0  0
 13 31  1  0  0  0  0
 13 32  1  0  0  0  0
 13 33  1  0  0  0  0
 14 34  1  0  0  0  0
 14 35  1  0  0  0  0
 14 36  1  0  0  0  0
 15 37  1  0  0  0  0
 16 38  1  0  0  0  0
 19 39  1  0  0  0  0
M  END
> <series>
3-aminopyridine-like

> <r_inhibition_at_20_uM>

> <r_inhibition_at_50_uM>
1.6045005225

> <r_IC50>

> <f_inhibition_at_20_uM>
6.4284514999999995

> <f_inhibition_at_50_uM>
18.962065

> <f_avg_IC50>

> <f_avg_pIC50>

> <ASSAYED>
True

> <Hybrid2>
-10.366863

> <docked_fragment>
x0678

> <Mpro-_dock>
-4.298956

> <site>
active-noncovalent

$$$$
JAG-UCB-a3ef7265-16
  -OEChem-07042000473D

 41 42  0     0  0  0  0  0  0999 V2000
   14.0045   -0.9686   23.9798 C   0  0  0  0  0  0  0  0  0  0  0  0
   13.1387    0.0721   24.3159 C   0  0  0  0  0  0  0  0  0  0  0  0
   12.3415   -1.8662   22.4746 C   0  0  0  0  0  0  0  0  0  0  0  0
    8.4649   -0.0327   18.7375 C   0  0  0  0  0  0  0  0  0  0  0  0
   13.6060   -1.9377   23.0591 C   0  0  0  0  0  0  0  0  0  0  0  0
   11.8742    0.1436   23.7314 C   0  0  0  0  0  0  0  0  0  0  0  0
    7.7780    0.4799   19.8542 C   0  0  0  0  0  0  0  0  0  0  0  0
   11.4756   -0.8256   22.8108 C   0  0  0  0  0  0  0  0  0  0  0  0
    6.5617    0.8785   19.3560 C   0  0  0  0  0  0  0  0  0  0  0  0
    9.7750    0.3430   21.4118 C   0  0  0  0  0  0  0  0  0  0  0  0
   14.5325   -3.0499   22.7002 C   0  0  0  0  0  0  0  0  0  0  0  0
   10.9673    1.2689   24.1110 C   0  0  0  0  0  0  0  0  0  0  0  0
    5.3946    1.4956   20.0143 C   0  0  0  0  0  0  0  0  0  0  0  0
    5.5424    0.8263   17.0595 C   0  0  0  0  0  0  0  0  0  0  0  0
    9.3231   -1.9664   22.3293 C   0  0  0  0  0  0  0  0  0  0  0  0
    8.2725    0.5689   21.2780 C   0  0  0  0  0  0  0  0  0  0  0  0
    7.7447    0.0328   17.6145 N   0  0  0  0  0  0  0  0  0  0  0  0
    6.5927    0.5912   18.0230 N   0  0  0  0  0  0  0  0  0  0  0  0
   10.2133   -0.7706   22.2142 N   0  0  0  0  0  0  0  0  0  0  0  0
   10.5573    1.0899   20.8178 O   0  0  0  0  0  0  0  0  0  0  0  0
   14.9878   -1.0163   24.4402 H   0  0  0  0  0  0  0  0  0  0  0  0
   13.4592    0.8222   25.0340 H   0  0  0  0  0  0  0  0  0  0  0  0
   12.0333   -2.6234   21.7569 H   0  0  0  0  0  0  0  0  0  0  0  0
    9.4599   -0.4520   18.6925 H   0  0  0  0  0  0  0  0  0  0  0  0
   14.3840   -3.9030   23.3734 H   0  0  0  0  0  0  0  0  0  0  0  0
   14.3685   -3.3880   21.6688 H   0  0  0  0  0  0  0  0  0  0  0  0
   15.5812   -2.7321   22.7672 H   0  0  0  0  0  0  0  0  0  0  0  0
   11.1230    2.1231   23.4424 H   0  0  0  0  0  0  0  0  0  0  0  0
    9.9150    0.9657   24.0528 H   0  0  0  0  0  0  0  0  0  0  0  0
   11.1502    1.5935   25.1425 H   0  0  0  0  0  0  0  0  0  0  0  0
    5.4647    2.5959   19.9992 H   0  0  0  0  0  0  0  0  0  0  0  0
    4.4459    1.2142   19.5255 H   0  0  0  0  0  0  0  0  0  0  0  0
    5.2986    1.1810   21.0680 H   0  0  0  0  0  0  0  0  0  0  0  0
    5.6869    1.8255   16.6401 H   0  0  0  0  0  0  0  0  0  0  0  0
    5.5950    0.0697   16.2717 H   0  0  0  0  0  0  0  0  0  0  0  0
    4.5719    0.7567   17.5587 H   0  0  0  0  0  0  0  0  0  0  0  0
    8.7060   -1.8789   23.2358 H   0  0  0  0  0  0  0  0  0  0  0  0
    8.6704   -2.0239   21.4458 H   0  0  0  0  0  0  0  0  0  0  0  0
    9.9378   -2.8765   22.3909 H   0  0  0  0  0  0  0  0  0  0  0  0
    8.0232    1.5621   21.6700 H   0  0  0  0  0  0  0  0  0  0  0  0
    7.7421   -0.1754   21.8837 H   0  0  0  0  0  0  0  0  0  0  0  0
  1  2  2  0  0  0  0
  1  5  1  0  0  0  0
  2  6  1  0  0  0  0
  3  5  2  0  0  0  0
  3  8  1  0  0  0  0
  4  7  1  0  0  0  0
  4 17  2  0  0  0  0
  5 11  1  0  0  0  0
  6  8  2  0  0  0  0
  6 12  1  0  0  0  0
  7  9  2  0  0  0  0
  7 16  1  0  0  0  0
  8 19  1  0  0  0  0
  9 13  1  0  0  0  0
  9 18  1  0  0  0  0
 10 16  1  0  0  0  0
 10 19  1  0  0  0  0
 10 20  2  0  0  0  0
 14 18  1  0  0  0  0
 15 19  1  0  0  0  0
 17 18  1  0  0  0  0
  1 21  1  0  0  0  0
  2 22  1  0  0  0  0
  3 23  1  0  0  0  0
  4 24  1  0  0  0  0
 11 25  1  0  0  0  0
 11 26  1  0  0  0  0
 11 27  1  0  0  0  0
 12 28  1  0  0  0  0
 12 29  1  0  0  0  0
 12 30  1  0  0  0  0
 13 31  1  0  0  0  0
 13 32  1  0  0  0  0
 13 33  1  0  0  0  0
 14 34  1  0  0  0  0
 14 35  1  0  0  0  0
 14 36  1  0  0  0  0
 15 37  1  0  0  0  0
 15 38  1  0  0  0  0
 15 39  1  0  0  0  0
 16 40  1  0  0  0  0
 16 41  1  0  0  0  0
M  END
> <series>
3-aminopyridine-like

> <r_inhibition_at_20_uM>

> <r_inhibition_at_50_uM>
0.0

> <r_IC50>

> <f_inhibition_at_20_uM>
7.753027499999999

> <f_inhibition_at_50_uM>
11.437880499999999

> <f_avg_IC50>

> <f_avg_pIC50>

> <ASSAYED>
True

> <Hybrid2>
-10.323903

> <docked_fragment>
x0678

> <Mpro-_dock>
-7.046047

> <site>
active-noncovalent

$$$$
LON-WEI-adc59df6-41
  -OEChem-07042000473D

 58 60  0     1  0  0  0  0  0999 V2000
    5.8320    0.1760   19.3523 C   0  0  0  0  0  0  0  0  0  0  0  0
    6.6473    0.5045   20.4295 C   0  0  0  0  0  0  0  0  0  0  0  0
    7.7295   -2.3378   23.6339 C   0  0  0  0  0  0  0  0  0  0  0  0
    7.7853   -0.9652   25.6214 C   0  0  0  0  0  0  0  0  0  0  0  0
    7.8806   -1.1988   22.8430 C   0  0  0  0  0  0  0  0  0  0  0  0
    7.9364    0.1738   24.8305 C   0  0  0  0  0  0  0  0  0  0  0  0
   12.7067    0.1605   24.1837 C   0  0  0  0  0  0  0  0  0  0  0  0
   12.3876   -1.4875   22.4461 C   0  0  0  0  0  0  0  0  0  0  0  0
   13.8227   -0.5392   24.6425 C   0  0  0  0  0  0  0  0  0  0  0  0
   13.5037   -2.1872   22.9049 C   0  0  0  0  0  0  0  0  0  0  0  0
    6.4157    0.0943   18.0983 C   0  0  0  0  0  0  0  0  0  0  0  0
    8.4890    0.6312   18.9300 C   0  0  0  0  0  0  0  0  0  0  0  0
    7.6819   -2.2210   25.0231 C   0  0  0  0  0  0  0  0  0  0  0  0
    8.0024    0.7381   20.2229 C   0  0  0  0  0  0  0  0  0  0  0  0
   11.9891   -0.3136   23.0856 C   0  0  0  0  0  0  0  0  0  0  0  0
    7.9841    0.0570   23.4413 C   0  0  0  0  0  0  0  0  0  0  0  0
   14.2212   -1.7131   24.0031 C   0  0  0  0  0  0  0  0  0  0  0  0
    8.0718    4.8731   22.5907 C   0  0  0  0  0  0  0  0  0  0  0  0
    7.9289    3.6339   22.1100 C   0  0  0  0  0  0  0  0  0  0  0  0
    7.6474    2.4959   23.0336 C   0  0  0  0  0  0  0  0  0  0  0  0
   10.0314    0.0692   21.5470 C   0  0  0  0  0  0  0  0  0  0  0  0
    8.6937   -4.4425   25.6449 C   0  0  0  0  0  0  0  0  0  0  0  0
    6.1920   -4.1868   25.5358 C   0  0  0  0  0  0  0  0  0  0  0  0
    7.4789   -3.1842   27.4120 C   0  0  0  0  0  0  0  0  0  0  0  0
    8.9158    1.0969   21.3741 C   0  0  2  0  0  0  0  0  0  0  0  0
    7.5153   -3.4767   25.8948 C   0  0  0  0  0  0  0  0  0  0  0  0
    7.7279    0.3143   17.8585 N   0  0  0  0  0  0  0  0  0  0  0  0
   10.8567    0.3961   22.6201 N   0  0  0  0  0  0  0  0  0  0  0  0
    8.1354    1.1964   22.6506 N   0  0  0  0  0  0  0  0  0  0  0  0
    6.9956    2.7082   24.0564 O   0  0  0  0  0  0  0  0  0  0  0  0
   10.1413   -0.8957   20.7953 O   0  0  0  0  0  0  0  0  0  0  0  0
   15.2935   -2.3847   24.4428 F   0  0  0  0  0  0  0  0  0  0  0  0
    4.7731   -0.0106   19.4898 H   0  0  0  0  0  0  0  0  0  0  0  0
    6.2188    0.5761   21.4255 H   0  0  0  0  0  0  0  0  0  0  0  0
    7.6474   -3.3120   23.1591 H   0  0  0  0  0  0  0  0  0  0  0  0
    7.7484   -0.8650   26.7029 H   0  0  0  0  0  0  0  0  0  0  0  0
    7.9169   -1.3016   21.7614 H   0  0  0  0  0  0  0  0  0  0  0  0
    8.0150    1.1477   25.3071 H   0  0  0  0  0  0  0  0  0  0  0  0
   12.4052    1.0740   24.6902 H   0  0  0  0  0  0  0  0  0  0  0  0
   11.8346   -1.8676   21.5909 H   0  0  0  0  0  0  0  0  0  0  0  0
   14.3811   -0.1709   25.4978 H   0  0  0  0  0  0  0  0  0  0  0  0
   13.8149   -3.1005   22.4065 H   0  0  0  0  0  0  0  0  0  0  0  0
    5.8224   -0.1583   17.2256 H   0  0  0  0  0  0  0  0  0  0  0  0
    9.5377    0.8021   18.7075 H   0  0  0  0  0  0  0  0  0  0  0  0
    8.2532    5.7005   21.9127 H   0  0  0  0  0  0  0  0  0  0  0  0
    8.0203    5.0970   23.6505 H   0  0  0  0  0  0  0  0  0  0  0  0
    7.9712    3.4556   21.0418 H   0  0  0  0  0  0  0  0  0  0  0  0
    8.5990   -5.3480   26.2556 H   0  0  0  0  0  0  0  0  0  0  0  0
    8.7503   -4.7661   24.5998 H   0  0  0  0  0  0  0  0  0  0  0  0
    9.6509   -3.9699   25.8952 H   0  0  0  0  0  0  0  0  0  0  0  0
    6.0306   -5.0901   26.1341 H   0  0  0  0  0  0  0  0  0  0  0  0
    5.3313   -3.5301   25.7090 H   0  0  0  0  0  0  0  0  0  0  0  0
    6.1776   -4.4841   24.4806 H   0  0  0  0  0  0  0  0  0  0  0  0
    7.3590   -4.1086   27.9898 H   0  0  0  0  0  0  0  0  0  0  0  0
    8.4059   -2.7092   27.7539 H   0  0  0  0  0  0  0  0  0  0  0  0
    6.6412   -2.5284   27.6766 H   0  0  0  0  0  0  0  0  0  0  0  0
    9.3724    2.0792   21.2012 H   0  0  0  0  0  0  0  0  0  0  0  0
   10.6175    1.2444   23.1291 H   0  0  0  0  0  0  0  0  0  0  0  0
  1  2  2  0  0  0  0
  1 11  1  0  0  0  0
  2 14  1  0  0  0  0
  3  5  2  0  0  0  0
  3 13  1  0  0  0  0
  4  6  1  0  0  0  0
  4 13  2  0  0  0  0
  5 16  1  0  0  0  0
  6 16  2  0  0  0  0
  7  9  2  0  0  0  0
  7 15  1  0  0  0  0
  8 10  1  0  0  0  0
  8 15  2  0  0  0  0
  9 17  1  0  0  0  0
 10 17  2  0  0  0  0
 11 27  2  0  0  0  0
 12 14  2  0  0  0  0
 12 27  1  0  0  0  0
 13 26  1  0  0  0  0
 14 25  1  0  0  0  0
 15 28  1  0  0  0  0
 16 29  1  0  0  0  0
 17 32  1  0  0  0  0
 18 19  2  0  0  0  0
 19 20  1  0  0  0  0
 20 29  1  0  0  0  0
 20 30  2  0  0  0  0
 21 25  1  0  0  0  0
 21 28  1  0  0  0  0
 21 31  2  0  0  0  0
 22 26  1  0  0  0  0
 23 26  1  0  0  0  0
 24 26  1  0  0  0  0
 25 29  1  0  0  0  0
  1 33  1  0  0  0  0
  2 34  1  0  0  0  0
  3 35  1  0  0  0  0
  4 36  1  0  0  0  0
  5 37  1  0  0  0  0
  6 38  1  0  0  0  0
  7 39  1  0  0  0  0
  8 40  1  0  0  0  0
  9 41  1  0  0  0  0
 10 42  1  0  0  0  0
 11 43  1  0  0  0  0
 12 44  1  0  0  0  0
 18 45  1  0  0  0  0
 18 46  1  0  0  0  0
 19 47  1  0  0  0  0
 22 48  1  0  0  0  0
 22 49  1  0  0  0  0
 22 50  1  0  0  0  0
 23 51  1  0  0  0  0
 23 52  1  0  0  0  0
 23 53  1  0  0  0  0
 24 54  1  0  0  0  0
 24 55  1  0  0  0  0
 24 56  1  0  0  0  0
 25 57  1  0  0  0  0
 28 58  1  0  0  0  0
M  END
> <series>
3-aminopyridine-like

> <r_inhibition_at_20_uM>
8.549901693531325

> <r_inhibition_at_50_uM>
31.91366290004415

> <r_IC50>

> <f_inhibition_at_20_uM>
16.96499

> <f_inhibition_at_50_uM>
35.96716

> <f_avg_IC50>

> <f_avg_pIC50>

> <ASSAYED>
True

> <Hybrid2>
-10.312313

> <docked_fragment>
x0678

> <Mpro-_dock>
-5.97566

> <site>
active-noncovalent

$$$$
LON-WEI-b8d98729-37
  -OEChem-07042000473D

 56 58  0     1  0  0  0  0  0999 V2000
    6.1236    0.2452   19.7860 C   0  0  0  0  0  0  0  0  0  0  0  0
    6.8886   -0.2652   20.8289 C   0  0  0  0  0  0  0  0  0  0  0  0
   12.9398   -0.1985   24.4275 C   0  0  0  0  0  0  0  0  0  0  0  0
   13.0453   -2.0620   22.8934 C   0  0  0  0  0  0  0  0  0  0  0  0
   11.7035    0.1688   23.8963 C   0  0  0  0  0  0  0  0  0  0  0  0
   11.8089   -1.6947   22.3622 C   0  0  0  0  0  0  0  0  0  0  0  0
    7.2077   -4.0643   24.6533 C   0  0  0  0  0  0  0  0  0  0  0  0
    6.4984   -4.9836   25.4261 C   0  0  0  0  0  0  0  0  0  0  0  0
    5.9630   -6.2439   23.4356 C   0  0  0  0  0  0  0  0  0  0  0  0
    6.6969    0.2960   18.5257 C   0  0  0  0  0  0  0  0  0  0  0  0
    8.6662   -0.6099   19.2869 C   0  0  0  0  0  0  0  0  0  0  0  0
   13.6107   -1.3139   23.9260 C   0  0  0  0  0  0  0  0  0  0  0  0
    8.1852   -0.7030   20.5830 C   0  0  0  0  0  0  0  0  0  0  0  0
    6.6723   -5.3245   22.6627 C   0  0  0  0  0  0  0  0  0  0  0  0
   11.1380   -0.5793   22.8637 C   0  0  0  0  0  0  0  0  0  0  0  0
    7.2947   -4.2347   23.2715 C   0  0  0  0  0  0  0  0  0  0  0  0
    5.8761   -6.0734   24.8173 C   0  0  0  0  0  0  0  0  0  0  0  0
   10.3440    3.3650   22.8175 C   0  0  0  0  0  0  0  0  0  0  0  0
   10.5254    2.1630   22.2615 C   0  0  0  0  0  0  0  0  0  0  0  0
    9.4314    1.1482   22.2882 C   0  0  0  0  0  0  0  0  0  0  0  0
    8.1952   -1.9353   22.7738 C   0  0  0  0  0  0  0  0  0  0  0  0
    6.7484   -5.5324   21.1850 C   0  0  0  0  0  0  0  0  0  0  0  0
    5.1363   -6.7362   26.9782 C   0  0  0  0  0  0  0  0  0  0  0  0
    9.0426   -1.2639   21.6960 C   0  0  2  0  0  0  0  0  0  0  0  0
   14.9326   -1.7066   24.4940 C   0  0  0  0  0  0  0  0  0  0  0  0
    7.9530   -0.1199   18.2482 N   0  0  0  0  0  0  0  0  0  0  0  0
    8.0172   -3.2900   22.5047 N   0  0  0  0  0  0  0  0  0  0  0  0
    9.8504   -0.1971   22.3104 N   0  0  0  0  0  0  0  0  0  0  0  0
    8.2624    1.5346   22.2780 O   0  0  0  0  0  0  0  0  0  0  0  0
    7.7460   -1.3043   23.7269 O   0  0  0  0  0  0  0  0  0  0  0  0
    5.1844   -6.9708   25.5717 O   0  0  0  0  0  0  0  0  0  0  0  0
   15.3632   -0.8855   25.4972 F   0  0  0  0  0  0  0  0  0  0  0  0
   14.9455   -2.9622   25.0317 F   0  0  0  0  0  0  0  0  0  0  0  0
   15.9287   -1.6977   23.5609 F   0  0  0  0  0  0  0  0  0  0  0  0
    5.1105    0.5920   19.9544 H   0  0  0  0  0  0  0  0  0  0  0  0
    6.4667   -0.3181   21.8289 H   0  0  0  0  0  0  0  0  0  0  0  0
   13.3740    0.3914   25.2304 H   0  0  0  0  0  0  0  0  0  0  0  0
   13.5614   -2.9321   22.4962 H   0  0  0  0  0  0  0  0  0  0  0  0
   11.1893    1.0398   24.2950 H   0  0  0  0  0  0  0  0  0  0  0  0
   11.3778   -2.2842   21.5569 H   0  0  0  0  0  0  0  0  0  0  0  0
    7.6878   -3.2181   25.1389 H   0  0  0  0  0  0  0  0  0  0  0  0
    6.4347   -4.8456   26.5020 H   0  0  0  0  0  0  0  0  0  0  0  0
    5.4763   -7.0942   22.9639 H   0  0  0  0  0  0  0  0  0  0  0  0
    6.1416    0.6859   17.6790 H   0  0  0  0  0  0  0  0  0  0  0  0
    9.6704   -0.9360   19.0346 H   0  0  0  0  0  0  0  0  0  0  0  0
   11.1341    4.1074   22.7750 H   0  0  0  0  0  0  0  0  0  0  0  0
    9.4267    3.6397   23.3265 H   0  0  0  0  0  0  0  0  0  0  0  0
   11.4521    1.9345   21.7479 H   0  0  0  0  0  0  0  0  0  0  0  0
    5.9122   -5.0280   20.6877 H   0  0  0  0  0  0  0  0  0  0  0  0
    7.6873   -5.1382   20.7778 H   0  0  0  0  0  0  0  0  0  0  0  0
    6.7136   -6.5994   20.9333 H   0  0  0  0  0  0  0  0  0  0  0  0
    4.5540   -7.5253   27.4602 H   0  0  0  0  0  0  0  0  0  0  0  0
    4.6795   -5.7622   27.1706 H   0  0  0  0  0  0  0  0  0  0  0  0
    6.1543   -6.7438   27.3748 H   0  0  0  0  0  0  0  0  0  0  0  0
    9.7444   -2.0051   21.2943 H   0  0  0  0  0  0  0  0  0  0  0  0
    8.4582   -3.6417   21.6575 H   0  0  0  0  0  0  0  0  0  0  0  0
  1  2  2  0  0  0  0
  1 10  1  0  0  0  0
  2 13  1  0  0  0  0
  3  5  2  0  0  0  0
  3 12  1  0  0  0  0
  4  6  1  0  0  0  0
  4 12  2  0  0  0  0
  5 15  1  0  0  0  0
  6 15  2  0  0  0  0
  7  8  2  0  0  0  0
  7 16  1  0  0  0  0
  8 17  1  0  0  0  0
  9 14  1  0  0  0  0
  9 17  2  0  0  0  0
 10 26  2  0  0  0  0
 11 13  2  0  0  0  0
 11 26  1  0  0  0  0
 12 25  1  0  0  0  0
 13 24  1  0  0  0  0
 14 16  2  0  0  0  0
 14 22  1  0  0  0  0
 15 28  1  0  0  0  0
 16 27  1  0  0  0  0
 17 31  1  0  0  0  0
 18 19  2  0  0  0  0
 19 20  1  0  0  0  0
 20 28  1  0  0  0  0
 20 29  2  0  0  0  0
 21 24  1  0  0  0  0
 21 27  1  0  0  0  0
 21 30  2  0  0  0  0
 23 31  1  0  0  0  0
 24 28  1  0  0  0  0
 25 32  1  0  0  0  0
 25 33  1  0  0  0  0
 25 34  1  0  0  0  0
  1 35  1  0  0  0  0
  2 36  1  0  0  0  0
  3 37  1  0  0  0  0
  4 38  1  0  0  0  0
  5 39  1  0  0  0  0
  6 40  1  0  0  0  0
  7 41  1  0  0  0  0
  8 42  1  0  0  0  0
  9 43  1  0  0  0  0
 10 44  1  0  0  0  0
 11 45  1  0  0  0  0
 18 46  1  0  0  0  0
 18 47  1  0  0  0  0
 19 48  1  0  0  0  0
 22 49  1  0  0  0  0
 22 50  1  0  0  0  0
 22 51  1  0  0  0  0
 23 52  1  0  0  0  0
 23 53  1  0  0  0  0
 23 54  1  0  0  0  0
 24 55  1  0  0  0  0
 27 56  1  0  0  0  0
M  END
> <series>
3-aminopyridine-like

> <r_inhibition_at_20_uM>
11.0318425125

> <r_inhibition_at_50_uM>

> <r_IC50>

> <f_inhibition_at_20_uM>
7.0595355

> <f_inhibition_at_50_uM>
25.435879999999997

> <f_avg_IC50>

> <f_avg_pIC50>

> <ASSAYED>
True

> <Hybrid2>
-10.303930

> <docked_fragment>
x0678

> <Mpro-_dock>
-5.559956

> <site>
active-noncovalent

$$$$
HAN-NEW-5f56c3bc-1
  -OEChem-07042000473D

 29 30  0     0  0  0  0  0  0999 V2000
   14.5562   -1.7224   23.7409 C   0  0  0  0  0  0  0  0  0  0  0  0
   13.6506   -1.2381   24.6847 C   0  0  0  0  0  0  0  0  0  0  0  0
   14.2068   -1.7535   22.3909 C   0  0  0  0  0  0  0  0  0  0  0  0
   12.3954   -0.7850   24.2786 C   0  0  0  0  0  0  0  0  0  0  0  0
   12.9516   -1.3005   21.9847 C   0  0  0  0  0  0  0  0  0  0  0  0
    8.4266    0.1232   18.8760 C   0  0  0  0  0  0  0  0  0  0  0  0
    6.4151    0.8327   18.0901 C   0  0  0  0  0  0  0  0  0  0  0  0
   12.0459   -0.8162   22.9285 C   0  0  0  0  0  0  0  0  0  0  0  0
    8.0649    0.4344   20.1709 C   0  0  0  0  0  0  0  0  0  0  0  0
    6.8001    0.9639   20.3266 C   0  0  0  0  0  0  0  0  0  0  0  0
   10.2497   -0.3117   21.2145 C   0  0  0  0  0  0  0  0  0  0  0  0
    6.2966    1.3396   21.6822 C   0  0  0  0  0  0  0  0  0  0  0  0
    7.6237    0.3099   17.8080 N   0  0  0  0  0  0  0  0  0  0  0  0
    5.9458    1.1774   19.3044 N   0  0  0  0  0  0  0  0  0  0  0  0
   10.7905   -0.3628   22.5224 N   0  0  0  0  0  0  0  0  0  0  0  0
    8.9493    0.2164   21.2536 N   0  0  0  0  0  0  0  0  0  0  0  0
   10.8370   -0.6769   20.2011 O   0  0  0  0  0  0  0  0  0  0  0  0
   15.5339   -2.0745   24.0567 H   0  0  0  0  0  0  0  0  0  0  0  0
   13.9226   -1.2128   25.7358 H   0  0  0  0  0  0  0  0  0  0  0  0
   14.9126   -2.1298   21.6560 H   0  0  0  0  0  0  0  0  0  0  0  0
   11.6979   -0.4095   25.0231 H   0  0  0  0  0  0  0  0  0  0  0  0
   12.6903   -1.3295   20.9298 H   0  0  0  0  0  0  0  0  0  0  0  0
    9.4002   -0.2979   18.6444 H   0  0  0  0  0  0  0  0  0  0  0  0
    5.7486    0.9911   17.2509 H   0  0  0  0  0  0  0  0  0  0  0  0
    6.5504    2.3820   21.9055 H   0  0  0  0  0  0  0  0  0  0  0  0
    5.2080    1.2227   21.7464 H   0  0  0  0  0  0  0  0  0  0  0  0
    6.7333    0.6989   22.4580 H   0  0  0  0  0  0  0  0  0  0  0  0
   10.1778   -0.0211   23.2705 H   0  0  0  0  0  0  0  0  0  0  0  0
    8.5934    0.4770   22.1699 H   0  0  0  0  0  0  0  0  0  0  0  0
  1  2  1  0  0  0  0
  1  3  2  0  0  0  0
  2  4  2  0  0  0  0
  3  5  1  0  0  0  0
  4  8  1  0  0  0  0
  5  8  2  0  0  0  0
  6  9  1  0  0  0  0
  6 13  2  0  0  0  0
  7 13  1  0  0  0  0
  7 14  2  0  0  0  0
  8 15  1  0  0  0  0
  9 10  2  0  0  0  0
  9 16  1  0  0  0  0
 10 12  1  0  0  0  0
 10 14  1  0  0  0  0
 11 15  1  0  0  0  0
 11 16  1  0  0  0  0
 11 17  2  0  0  0  0
  1 18  1  0  0  0  0
  2 19  1  0  0  0  0
  3 20  1  0  0  0  0
  4 21  1  0  0  0  0
  5 22  1  0  0  0  0
  6 23  1  0  0  0  0
  7 24  1  0  0  0  0
 12 25  1  0  0  0  0
 12 26  1  0  0  0  0
 12 27  1  0  0  0  0
 15 28  1  0  0  0  0
 16 29  1  0  0  0  0
M  END
> <series>
3-aminopyridine-like

> <r_inhibition_at_20_uM>
6.04

> <r_inhibition_at_50_uM>
20.105

> <r_IC50>

> <f_inhibition_at_20_uM>
-2.0625485

> <f_inhibition_at_50_uM>
-0.6277824000000001

> <f_avg_IC50>

> <f_avg_pIC50>

> <ASSAYED>
True

> <Hybrid2>
-10.278812

> <docked_fragment>
x0678

> <Mpro-_dock>
-4.910699

> <site>
active-noncovalent

$$$$
EDG-MED-0da5ad92-2
  -OEChem-07042000473D

 28 29  0     0  0  0  0  0  0999 V2000
   12.6616    0.6513   24.0392 C   0  0  0  0  0  0  0  0  0  0  0  0
    6.0873    1.2499   19.5373 C   0  0  0  0  0  0  0  0  0  0  0  0
   11.3603    0.1803   24.2140 C   0  0  0  0  0  0  0  0  0  0  0  0
    6.7975    0.6940   20.5955 C   0  0  0  0  0  0  0  0  0  0  0  0
   13.4639    0.1248   23.0269 C   0  0  0  0  0  0  0  0  0  0  0  0
   11.6637   -1.3440   22.3642 C   0  0  0  0  0  0  0  0  0  0  0  0
    6.5590    1.0301   18.2532 C   0  0  0  0  0  0  0  0  0  0  0  0
    8.3301   -0.2158   19.0208 C   0  0  0  0  0  0  0  0  0  0  0  0
   10.8614   -0.8173   23.3765 C   0  0  0  0  0  0  0  0  0  0  0  0
    7.9415   -0.0542   20.3410 C   0  0  0  0  0  0  0  0  0  0  0  0
   12.9649   -0.8729   22.1894 C   0  0  0  0  0  0  0  0  0  0  0  0
    8.4205   -0.5570   22.7623 C   0  0  0  0  0  0  0  0  0  0  0  0
    9.4704   -1.3213   23.5647 C   0  0  0  0  0  0  0  0  0  0  0  0
    7.6661    0.3090   17.9666 N   0  0  0  0  0  0  0  0  0  0  0  0
    8.6853   -0.6323   21.3971 N   0  0  0  0  0  0  0  0  0  0  0  0
    7.4901    0.0281   23.3074 O   0  0  0  0  0  0  0  0  0  0  0  0
   13.9557   -1.5230   20.9414 Cl  0  0  0  0  0  0  0  0  0  0  0  0
   13.0498    1.4282   24.6917 H   0  0  0  0  0  0  0  0  0  0  0  0
    5.1928    1.8367   19.7123 H   0  0  0  0  0  0  0  0  0  0  0  0
   10.7423    0.5963   25.0054 H   0  0  0  0  0  0  0  0  0  0  0  0
    6.4510    0.8498   21.6138 H   0  0  0  0  0  0  0  0  0  0  0  0
   14.4762    0.5013   22.9025 H   0  0  0  0  0  0  0  0  0  0  0  0
   11.2699   -2.1213   21.7135 H   0  0  0  0  0  0  0  0  0  0  0  0
    6.0414    1.4430   17.3936 H   0  0  0  0  0  0  0  0  0  0  0  0
    9.2142   -0.7894   18.7588 H   0  0  0  0  0  0  0  0  0  0  0  0
    9.4069   -2.3852   23.2823 H   0  0  0  0  0  0  0  0  0  0  0  0
    9.1881   -1.2744   24.6294 H   0  0  0  0  0  0  0  0  0  0  0  0
    9.5097   -1.1650   21.1276 H   0  0  0  0  0  0  0  0  0  0  0  0
  1  3  2  0  0  0  0
  1  5  1  0  0  0  0
  2  4  2  0  0  0  0
  2  7  1  0  0  0  0
  3  9  1  0  0  0  0
  4 10  1  0  0  0  0
  5 11  2  0  0  0  0
  6  9  2  0  0  0  0
  6 11  1  0  0  0  0
  7 14  2  0  0  0  0
  8 10  2  0  0  0  0
  8 14  1  0  0  0  0
  9 13  1  0  0  0  0
 10 15  1  0  0  0  0
 11 17  1  0  0  0  0
 12 13  1  0  0  0  0
 12 15  1  0  0  0  0
 12 16  2  0  0  0  0
  1 18  1  0  0  0  0
  2 19  1  0  0  0  0
  3 20  1  0  0  0  0
  4 21  1  0  0  0  0
  5 22  1  0  0  0  0
  6 23  1  0  0  0  0
  7 24  1  0  0  0  0
  8 25  1  0  0  0  0
 13 26  1  0  0  0  0
 13 27  1  0  0  0  0
 15 28  1  0  0  0  0
M  END
> <series>
3-aminopyridine-like

> <r_inhibition_at_20_uM>

> <r_inhibition_at_50_uM>
52.36828924798618

> <r_IC50>

> <f_inhibition_at_20_uM>
24.074975

> <f_inhibition_at_50_uM>
40.890465

> <f_avg_IC50>
53.71730677823199

> <f_avg_pIC50>
4.269885769656957

> <ASSAYED>
True

> <Hybrid2>
-10.237127

> <docked_fragment>
x0678

> <Mpro-_dock>
-6.654258

> <site>
active-noncovalent

$$$$
DAR-DIA-23aa0b97-17
  -OEChem-07042000473D

 28 29  0     0  0  0  0  0  0999 V2000
   13.6228   -0.4992   22.7815 C   0  0  0  0  0  0  0  0  0  0  0  0
    5.7055    1.4959   18.5525 C   0  0  0  0  0  0  0  0  0  0  0  0
    6.0807    1.0731   19.8228 C   0  0  0  0  0  0  0  0  0  0  0  0
   11.2068   -0.8960   22.9257 C   0  0  0  0  0  0  0  0  0  0  0  0
    6.4474    1.0440   17.4731 C   0  0  0  0  0  0  0  0  0  0  0  0
   12.3591   -0.0629   24.8323 C   0  0  0  0  0  0  0  0  0  0  0  0
   10.0962   -0.4320   24.9769 C   0  0  0  0  0  0  0  0  0  0  0  0
    7.8472   -0.1718   18.8298 C   0  0  0  0  0  0  0  0  0  0  0  0
   12.3983   -0.4855   23.5133 C   0  0  0  0  0  0  0  0  0  0  0  0
   10.0292   -0.8717   23.6647 C   0  0  0  0  0  0  0  0  0  0  0  0
    7.1710    0.2233   19.9728 C   0  0  0  0  0  0  0  0  0  0  0  0
    8.6403   -1.0694   21.5588 C   0  0  0  0  0  0  0  0  0  0  0  0
    8.7388   -1.3055   23.0654 C   0  0  0  0  0  0  0  0  0  0  0  0
   14.6189   -0.5102   22.1862 N   0  0  0  0  0  0  0  0  0  0  0  0
    7.5124    0.2181   17.5794 N   0  0  0  0  0  0  0  0  0  0  0  0
   11.2348   -0.0255   25.5819 N   0  0  0  0  0  0  0  0  0  0  0  0
    7.5770   -0.2237   21.2528 N   0  0  0  0  0  0  0  0  0  0  0  0
    9.4264   -1.5887   20.7730 O   0  0  0  0  0  0  0  0  0  0  0  0
    4.8589    2.1582   18.4119 H   0  0  0  0  0  0  0  0  0  0  0  0
    5.5171    1.4115   20.6883 H   0  0  0  0  0  0  0  0  0  0  0  0
   11.1897   -1.2368   21.8928 H   0  0  0  0  0  0  0  0  0  0  0  0
    6.1958    1.3456   16.4617 H   0  0  0  0  0  0  0  0  0  0  0  0
   13.2550    0.2705   25.3483 H   0  0  0  0  0  0  0  0  0  0  0  0
    9.2095   -0.3891   25.6021 H   0  0  0  0  0  0  0  0  0  0  0  0
    8.7060   -0.8344   18.8826 H   0  0  0  0  0  0  0  0  0  0  0  0
    8.5679   -2.3803   23.2506 H   0  0  0  0  0  0  0  0  0  0  0  0
    7.8946   -0.7817   23.5466 H   0  0  0  0  0  0  0  0  0  0  0  0
    7.0280    0.1120   22.0414 H   0  0  0  0  0  0  0  0  0  0  0  0
  1  9  1  0  0  0  0
  1 14  3  0  0  0  0
  2  3  2  0  0  0  0
  2  5  1  0  0  0  0
  3 11  1  0  0  0  0
  4  9  2  0  0  0  0
  4 10  1  0  0  0  0
  5 15  2  0  0  0  0
  6  9  1  0  0  0  0
  6 16  2  0  0  0  0
  7 10  2  0  0  0  0
  7 16  1  0  0  0  0
  8 11  2  0  0  0  0
  8 15  1  0  0  0  0
 10 13  1  0  0  0  0
 11 17  1  0  0  0  0
 12 13  1  0  0  0  0
 12 17  1  0  0  0  0
 12 18  2  0  0  0  0
  2 19  1  0  0  0  0
  3 20  1  0  0  0  0
  4 21  1  0  0  0  0
  5 22  1  0  0  0  0
  6 23  1  0  0  0  0
  7 24  1  0  0  0  0
  8 25  1  0  0  0  0
 13 26  1  0  0  0  0
 13 27  1  0  0  0  0
 17 28  1  0  0  0  0
M  END
> <series>
3-aminopyridine-like

> <r_inhibition_at_20_uM>
6.5775000000000015

> <r_inhibition_at_50_uM>
12.695

> <r_IC50>

> <f_inhibition_at_20_uM>
6.610398

> <f_inhibition_at_50_uM>
21.805805

> <f_avg_IC50>

> <f_avg_pIC50>

> <ASSAYED>
True

> <Hybrid2>
-10.204250

> <docked_fragment>
x0678

> <Mpro-_dock>
-5.814838

> <site>
active-noncovalent

$$$$
LON-WEI-adc59df6-14
  -OEChem-07042000473D

 58 60  0     1  0  0  0  0  0999 V2000
    5.6213    1.2196   18.2872 C   0  0  0  0  0  0  0  0  0  0  0  0
    6.0100    1.0725   19.6141 C   0  0  0  0  0  0  0  0  0  0  0  0
   11.3269   -1.5762   23.6916 C   0  0  0  0  0  0  0  0  0  0  0  0
   11.9957   -0.4419   21.6660 C   0  0  0  0  0  0  0  0  0  0  0  0
   10.0072   -1.6032   23.2408 C   0  0  0  0  0  0  0  0  0  0  0  0
   10.6760   -0.4688   21.2152 C   0  0  0  0  0  0  0  0  0  0  0  0
    6.4379    0.6769   17.3083 C   0  0  0  0  0  0  0  0  0  0  0  0
    7.9332   -0.1092   18.8652 C   0  0  0  0  0  0  0  0  0  0  0  0
   12.3212   -0.9955   22.9042 C   0  0  0  0  0  0  0  0  0  0  0  0
    7.1868    0.3969   19.9172 C   0  0  0  0  0  0  0  0  0  0  0  0
    9.6817   -1.0495   22.0026 C   0  0  0  0  0  0  0  0  0  0  0  0
    7.6676   -4.6612   21.9920 C   0  0  0  0  0  0  0  0  0  0  0  0
    8.3387   -3.5816   21.5785 C   0  0  0  0  0  0  0  0  0  0  0  0
    7.6219   -2.2941   21.3423 C   0  0  0  0  0  0  0  0  0  0  0  0
    8.5508    1.3527   21.7991 C   0  0  0  0  0  0  0  0  0  0  0  0
    8.9270    4.4254   24.9985 C   0  0  0  0  0  0  0  0  0  0  0  0
    8.7282    2.9243   25.2932 C   0  0  0  0  0  0  0  0  0  0  0  0
    8.6970    4.0876   23.5110 C   0  0  0  0  0  0  0  0  0  0  0  0
    9.1803    2.6556   23.8388 C   0  0  0  0  0  0  0  0  0  0  0  0
   14.2776   -2.4087   23.6261 C   0  0  0  0  0  0  0  0  0  0  0  0
   13.8544   -0.1878   24.7328 C   0  0  0  0  0  0  0  0  0  0  0  0
   14.7586   -0.2890   22.4190 C   0  0  0  0  0  0  0  0  0  0  0  0
    7.6361    0.2198   21.3489 C   0  0  2  0  0  0  0  0  0  0  0  0
   13.7759   -0.9658   23.4013 C   0  0  0  0  0  0  0  0  0  0  0  0
    7.5880    0.0139   17.5640 N   0  0  0  0  0  0  0  0  0  0  0  0
    8.4478    1.5979   23.1613 N   0  0  0  0  0  0  0  0  0  0  0  0
    8.3619   -1.0766   21.5513 N   0  0  0  0  0  0  0  0  0  0  0  0
    6.4368   -2.3263   21.0097 O   0  0  0  0  0  0  0  0  0  0  0  0
    9.2588    1.9875   21.0198 O   0  0  0  0  0  0  0  0  0  0  0  0
    4.7078    1.7422   18.0275 H   0  0  0  0  0  0  0  0  0  0  0  0
    5.3903    1.4871   20.4046 H   0  0  0  0  0  0  0  0  0  0  0  0
   11.5711   -2.0080   24.6587 H   0  0  0  0  0  0  0  0  0  0  0  0
   12.7639    0.0133   21.0464 H   0  0  0  0  0  0  0  0  0  0  0  0
    9.2405   -2.0587   23.8626 H   0  0  0  0  0  0  0  0  0  0  0  0
   10.4332   -0.0335   20.2491 H   0  0  0  0  0  0  0  0  0  0  0  0
    6.1789    0.7650   16.2583 H   0  0  0  0  0  0  0  0  0  0  0  0
    8.8606   -0.6457   19.0403 H   0  0  0  0  0  0  0  0  0  0  0  0
    8.1970   -5.5884   22.1845 H   0  0  0  0  0  0  0  0  0  0  0  0
    6.5936   -4.6580   22.1422 H   0  0  0  0  0  0  0  0  0  0  0  0
    9.4149   -3.6228   21.4563 H   0  0  0  0  0  0  0  0  0  0  0  0
    8.1976    5.1008   25.4522 H   0  0  0  0  0  0  0  0  0  0  0  0
    9.9377    4.7883   25.2178 H   0  0  0  0  0  0  0  0  0  0  0  0
    9.3710    2.5098   26.0742 H   0  0  0  0  0  0  0  0  0  0  0  0
    7.6874    2.6540   25.5083 H   0  0  0  0  0  0  0  0  0  0  0  0
    7.6471    4.1592   23.2027 H   0  0  0  0  0  0  0  0  0  0  0  0
    9.3138    4.6458   22.8018 H   0  0  0  0  0  0  0  0  0  0  0  0
   10.2630    2.5245   23.7343 H   0  0  0  0  0  0  0  0  0  0  0  0
   15.3146   -2.4158   23.9815 H   0  0  0  0  0  0  0  0  0  0  0  0
   13.6801   -2.9440   24.3722 H   0  0  0  0  0  0  0  0  0  0  0  0
   14.2395   -2.9888   22.6964 H   0  0  0  0  0  0  0  0  0  0  0  0
   14.8758   -0.1407   25.1259 H   0  0  0  0  0  0  0  0  0  0  0  0
   13.5117    0.8460   24.6074 H   0  0  0  0  0  0  0  0  0  0  0  0
   13.2276   -0.6562   25.5008 H   0  0  0  0  0  0  0  0  0  0  0  0
   15.7805   -0.2925   22.8171 H   0  0  0  0  0  0  0  0  0  0  0  0
   14.7875   -0.8091   21.4544 H   0  0  0  0  0  0  0  0  0  0  0  0
   14.4886    0.7575   22.2350 H   0  0  0  0  0  0  0  0  0  0  0  0
    6.7701    0.1748   22.0203 H   0  0  0  0  0  0  0  0  0  0  0  0
    7.8331    1.0193   23.7262 H   0  0  0  0  0  0  0  0  0  0  0  0
  1  2  2  0  0  0  0
  1  7  1  0  0  0  0
  2 10  1  0  0  0  0
  3  5  2  0  0  0  0
  3  9  1  0  0  0  0
  4  6  1  0  0  0  0
  4  9  2  0  0  0  0
  5 11  1  0  0  0  0
  6 11  2  0  0  0  0
  7 25  2  0  0  0  0
  8 10  2  0  0  0  0
  8 25  1  0  0  0  0
  9 24  1  0  0  0  0
 10 23  1  0  0  0  0
 11 27  1  0  0  0  0
 12 13  2  0  0  0  0
 13 14  1  0  0  0  0
 14 27  1  0  0  0  0
 14 28  2  0  0  0  0
 15 23  1  0  0  0  0
 15 26  1  0  0  0  0
 15 29  2  0  0  0  0
 16 17  1  0  0  0  0
 16 18  1  0  0  0  0
 17 19  1  0  0  0  0
 18 19  1  0  0  0  0
 19 26  1  0  0  0  0
 20 24  1  0  0  0  0
 21 24  1  0  0  0  0
 22 24  1  0  0  0  0
 23 27  1  0  0  0  0
  1 30  1  0  0  0  0
  2 31  1  0  0  0  0
  3 32  1  0  0  0  0
  4 33  1  0  0  0  0
  5 34  1  0  0  0  0
  6 35  1  0  0  0  0
  7 36  1  0  0  0  0
  8 37  1  0  0  0  0
 12 38  1  0  0  0  0
 12 39  1  0  0  0  0
 13 40  1  0  0  0  0
 16 41  1  0  0  0  0
 16 42  1  0  0  0  0
 17 43  1  0  0  0  0
 17 44  1  0  0  0  0
 18 45  1  0  0  0  0
 18 46  1  0  0  0  0
 19 47  1  0  0  0  0
 20 48  1  0  0  0  0
 20 49  1  0  0  0  0
 20 50  1  0  0  0  0
 21 51  1  0  0  0  0
 21 52  1  0  0  0  0
 21 53  1  0  0  0  0
 22 54  1  0  0  0  0
 22 55  1  0  0  0  0
 22 56  1  0  0  0  0
 23 57  1  0  0  0  0
 26 58  1  0  0  0  0
M  END
> <series>
3-aminopyridine-like

> <r_inhibition_at_20_uM>
0.0

> <r_inhibition_at_50_uM>
51.94343540195218

> <r_IC50>

> <f_inhibition_at_20_uM>
6.161206

> <f_inhibition_at_50_uM>
11.98804

> <f_avg_IC50>

> <f_avg_pIC50>

> <ASSAYED>
True

> <Hybrid2>
-10.202576

> <docked_fragment>
x0678

> <Mpro-_dock>
-4.336716

> <site>
active-noncovalent

$$$$
BAR-COM-0f94fc3d-49
  -OEChem-07042000473D

 42 44  0     0  0  0  0  0  0999 V2000
   11.2290   -1.2156   24.9987 C   0  0  0  0  0  0  0  0  0  0  0  0
    9.9658   -1.4838   24.4724 C   0  0  0  0  0  0  0  0  0  0  0  0
    5.4411    1.4149   18.5076 C   0  0  0  0  0  0  0  0  0  0  0  0
   10.9440   -1.7858   22.2877 C   0  0  0  0  0  0  0  0  0  0  0  0
    6.1159    1.0186   17.3642 C   0  0  0  0  0  0  0  0  0  0  0  0
    7.4678   -0.4115   18.5497 C   0  0  0  0  0  0  0  0  0  0  0  0
   12.3635   -1.2218   24.1730 C   0  0  0  0  0  0  0  0  0  0  0  0
   12.2218   -1.5280   22.8068 C   0  0  0  0  0  0  0  0  0  0  0  0
    9.8231   -1.7664   23.1171 C   0  0  0  0  0  0  0  0  0  0  0  0
    6.8565   -0.0820   19.7487 C   0  0  0  0  0  0  0  0  0  0  0  0
    5.8246    0.8494   19.7186 C   0  0  0  0  0  0  0  0  0  0  0  0
    8.3139   -1.6383   21.0900 C   0  0  0  0  0  0  0  0  0  0  0  0
   13.7166   -0.9600   24.7859 C   0  0  0  0  0  0  0  0  0  0  0  0
   13.4052   -1.5255   21.8716 C   0  0  0  0  0  0  0  0  0  0  0  0
   14.7912   -0.6224   23.7541 C   0  0  0  0  0  0  0  0  0  0  0  0
   14.7470   -1.6115   22.5965 C   0  0  0  0  0  0  0  0  0  0  0  0
    5.9927    2.7512   21.6854 C   0  0  0  0  0  0  0  0  0  0  0  0
    8.4722   -2.0488   22.5518 C   0  0  0  0  0  0  0  0  0  0  0  0
    7.1229    0.1167   17.3540 N   0  0  0  0  0  0  0  0  0  0  0  0
    7.2973   -0.6977   20.9443 N   0  0  0  0  0  0  0  0  0  0  0  0
    9.0196   -2.1125   20.2055 O   0  0  0  0  0  0  0  0  0  0  0  0
    4.9587    1.3535   21.1995 S   0  0  0  0  0  0  0  0  0  0  0  0
   11.3263   -0.9998   26.0600 H   0  0  0  0  0  0  0  0  0  0  0  0
    9.0992   -1.4696   25.1279 H   0  0  0  0  0  0  0  0  0  0  0  0
    4.6413    2.1452   18.4380 H   0  0  0  0  0  0  0  0  0  0  0  0
   10.8262   -2.0030   21.2280 H   0  0  0  0  0  0  0  0  0  0  0  0
    5.8545    1.4292   16.3944 H   0  0  0  0  0  0  0  0  0  0  0  0
    8.2784   -1.1331   18.5072 H   0  0  0  0  0  0  0  0  0  0  0  0
   13.6476   -0.1346   25.5044 H   0  0  0  0  0  0  0  0  0  0  0  0
   14.0172   -1.8578   25.3407 H   0  0  0  0  0  0  0  0  0  0  0  0
   13.3294   -2.3662   21.1714 H   0  0  0  0  0  0  0  0  0  0  0  0
   13.3706   -0.6001   21.2829 H   0  0  0  0  0  0  0  0  0  0  0  0
   14.6373    0.3954   23.3738 H   0  0  0  0  0  0  0  0  0  0  0  0
   15.7777   -0.6410   24.2306 H   0  0  0  0  0  0  0  0  0  0  0  0
   14.9014   -2.6292   22.9771 H   0  0  0  0  0  0  0  0  0  0  0  0
   15.5598   -1.4049   21.8915 H   0  0  0  0  0  0  0  0  0  0  0  0
    5.6035    3.2006   22.6022 H   0  0  0  0  0  0  0  0  0  0  0  0
    5.9956    3.5037   20.8930 H   0  0  0  0  0  0  0  0  0  0  0  0
    7.0167    2.4122   21.8602 H   0  0  0  0  0  0  0  0  0  0  0  0
    8.2410   -3.1240   22.6305 H   0  0  0  0  0  0  0  0  0  0  0  0
    7.6966   -1.5297   23.1387 H   0  0  0  0  0  0  0  0  0  0  0  0
    6.8152   -0.4208   21.7970 H   0  0  0  0  0  0  0  0  0  0  0  0
  1  2  2  0  0  0  0
  1  7  1  0  0  0  0
  2  9  1  0  0  0  0
  3  5  2  0  0  0  0
  3 11  1  0  0  0  0
  4  8  1  0  0  0  0
  4  9  2  0  0  0  0
  5 19  1  0  0  0  0
  6 10  1  0  0  0  0
  6 19  2  0  0  0  0
  7  8  2  0  0  0  0
  7 13  1  0  0  0  0
  8 14  1  0  0  0  0
  9 18  1  0  0  0  0
 10 11  2  0  0  0  0
 10 20  1  0  0  0  0
 11 22  1  0  0  0  0
 12 18  1  0  0  0  0
 12 20  1  0  0  0  0
 12 21  2  0  0  0  0
 13 15  1  0  0  0  0
 14 16  1  0  0  0  0
 15 16  1  0  0  0  0
 17 22  1  0  0  0  0
  1 23  1  0  0  0  0
  2 24  1  0  0  0  0
  3 25  1  0  0  0  0
  4 26  1  0  0  0  0
  5 27  1  0  0  0  0
  6 28  1  0  0  0  0
 13 29  1  0  0  0  0
 13 30  1  0  0  0  0
 14 31  1  0  0  0  0
 14 32  1  0  0  0  0
 15 33  1  0  0  0  0
 15 34  1  0  0  0  0
 16 35  1  0  0  0  0
 16 36  1  0  0  0  0
 17 37  1  0  0  0  0
 17 38  1  0  0  0  0
 17 39  1  0  0  0  0
 18 40  1  0  0  0  0
 18 41  1  0  0  0  0
 20 42  1  0  0  0  0
M  END
> <series>
3-aminopyridine-like

> <r_inhibition_at_20_uM>

> <r_inhibition_at_50_uM>
0.0

> <r_IC50>

> <f_inhibition_at_20_uM>
-1.1586189999999998

> <f_inhibition_at_50_uM>
11.601515

> <f_avg_IC50>

> <f_avg_pIC50>

> <ASSAYED>
True

> <Hybrid2>
-10.179695

> <docked_fragment>
x0678

> <Mpro-_dock>
-5.30493

> <site>
active-noncovalent

$$$$
JAN-GHE-83b26c96-1
  -OEChem-07042000473D

 36 37  0     1  0  0  0  0  0999 V2000
   12.5713   -1.8301   22.1884 C   0  0  0  0  0  0  0  0  0  0  0  0
   11.4718   -0.9775   22.0909 C   0  0  0  0  0  0  0  0  0  0  0  0
   13.4947   -1.6624   23.2205 C   0  0  0  0  0  0  0  0  0  0  0  0
   12.2190    0.2108   24.0574 C   0  0  0  0  0  0  0  0  0  0  0  0
    5.5789    0.5721   18.8905 C   0  0  0  0  0  0  0  0  0  0  0  0
    8.2468    0.3673   18.9184 C   0  0  0  0  0  0  0  0  0  0  0  0
   11.2956    0.0430   23.0254 C   0  0  0  0  0  0  0  0  0  0  0  0
    6.2192    0.6394   20.1115 C   0  0  0  0  0  0  0  0  0  0  0  0
    7.5989    0.5337   20.1259 C   0  0  0  0  0  0  0  0  0  0  0  0
   13.3185   -0.6419   24.1549 C   0  0  0  0  0  0  0  0  0  0  0  0
    9.6296    1.0697   21.4571 C   0  0  0  0  0  0  0  0  0  0  0  0
    5.4257    0.8204   21.3595 C   0  0  0  0  0  0  0  0  0  0  0  0
    9.1848    3.3137   23.3919 C   0  0  0  0  0  0  0  0  0  0  0  0
   10.3798    2.3743   23.4970 C   0  0  0  0  0  0  0  0  0  0  0  0
   10.0981    0.9724   22.9177 C   0  0  2  0  0  0  0  0  0  0  0  0
    6.2385    0.4089   17.7241 N   0  0  0  0  0  0  0  0  0  0  0  0
    7.5944    0.3046   17.7384 N   0  0  0  0  0  0  0  0  0  0  0  0
    8.3299    0.5906   21.3150 N   0  0  0  0  0  0  0  0  0  0  0  0
   10.3657    1.5100   20.5788 O   0  0  0  0  0  0  0  0  0  0  0  0
   14.4586   -0.4348   25.4273 Cl  0  0  0  0  0  0  0  0  0  0  0  0
   12.7083   -2.6246   21.4605 H   0  0  0  0  0  0  0  0  0  0  0  0
   10.7575   -1.1154   21.2835 H   0  0  0  0  0  0  0  0  0  0  0  0
   14.3471   -2.3343   23.2839 H   0  0  0  0  0  0  0  0  0  0  0  0
   12.0768    1.0077   24.7838 H   0  0  0  0  0  0  0  0  0  0  0  0
    4.5006    0.6477   18.8035 H   0  0  0  0  0  0  0  0  0  0  0  0
    9.3257    0.2769   18.8522 H   0  0  0  0  0  0  0  0  0  0  0  0
    5.1424   -0.1535   21.7783 H   0  0  0  0  0  0  0  0  0  0  0  0
    5.9955    1.3720   22.1192 H   0  0  0  0  0  0  0  0  0  0  0  0
    4.5098    1.3965   21.1709 H   0  0  0  0  0  0  0  0  0  0  0  0
    8.3285    2.8926   23.9284 H   0  0  0  0  0  0  0  0  0  0  0  0
    8.8833    3.4650   22.3511 H   0  0  0  0  0  0  0  0  0  0  0  0
    9.4124    4.2898   23.8322 H   0  0  0  0  0  0  0  0  0  0  0  0
   11.2175    2.8259   22.9500 H   0  0  0  0  0  0  0  0  0  0  0  0
   10.6967    2.3140   24.5453 H   0  0  0  0  0  0  0  0  0  0  0  0
    9.2595    0.5508   23.4904 H   0  0  0  0  0  0  0  0  0  0  0  0
    7.8695    0.2503   22.1561 H   0  0  0  0  0  0  0  0  0  0  0  0
  1  2  2  0  0  0  0
  1  3  1  0  0  0  0
  2  7  1  0  0  0  0
  3 10  2  0  0  0  0
  4  7  2  0  0  0  0
  4 10  1  0  0  0  0
  5  8  1  0  0  0  0
  5 16  2  0  0  0  0
  6  9  1  0  0  0  0
  6 17  2  0  0  0  0
  7 15  1  0  0  0  0
  8  9  2  0  0  0  0
  8 12  1  0  0  0  0
  9 18  1  0  0  0  0
 10 20  1  0  0  0  0
 11 15  1  0  0  0  0
 11 18  1  0  0  0  0
 11 19  2  0  0  0  0
 13 14  1  0  0  0  0
 14 15  1  0  0  0  0
 16 17  1  0  0  0  0
  1 21  1  0  0  0  0
  2 22  1  0  0  0  0
  3 23  1  0  0  0  0
  4 24  1  0  0  0  0
  5 25  1  0  0  0  0
  6 26  1  0  0  0  0
 12 27  1  0  0  0  0
 12 28  1  0  0  0  0
 12 29  1  0  0  0  0
 13 30  1  0  0  0  0
 13 31  1  0  0  0  0
 13 32  1  0  0  0  0
 14 33  1  0  0  0  0
 14 34  1  0  0  0  0
 15 35  1  0  0  0  0
 18 36  1  0  0  0  0
M  END
> <series>
3-aminopyridine-like

> <r_inhibition_at_20_uM>

> <r_inhibition_at_50_uM>
0.0

> <r_IC50>

> <f_inhibition_at_20_uM>
2.53556505

> <f_inhibition_at_50_uM>
1.1459735

> <f_avg_IC50>

> <f_avg_pIC50>

> <ASSAYED>
True

> <Hybrid2>
-10.176954

> <docked_fragment>
x0678

> <Mpro-_dock>
-6.62514

> <site>
active-noncovalent

$$$$
ANN-UNI-98d2bf15-5
  -OEChem-07042000473D

 35 36  0     0  0  0  0  0  0999 V2000
   10.6943   -0.3344   25.7137 C   0  0  0  0  0  0  0  0  0  0  0  0
    9.5595   -0.8261   25.0687 C   0  0  0  0  0  0  0  0  0  0  0  0
   11.8814   -0.1618   25.0018 C   0  0  0  0  0  0  0  0  0  0  0  0
    5.2184    1.1550   18.6232 C   0  0  0  0  0  0  0  0  0  0  0  0
   10.7988   -0.9728   23.0000 C   0  0  0  0  0  0  0  0  0  0  0  0
    6.0547    0.8836   17.5523 C   0  0  0  0  0  0  0  0  0  0  0  0
    7.5278   -0.2751   18.8811 C   0  0  0  0  0  0  0  0  0  0  0  0
    9.6117   -1.1454   23.7119 C   0  0  0  0  0  0  0  0  0  0  0  0
    5.5852    0.6717   19.8742 C   0  0  0  0  0  0  0  0  0  0  0  0
    6.7606   -0.0579   20.0143 C   0  0  0  0  0  0  0  0  0  0  0  0
   11.9336   -0.4810   23.6450 C   0  0  0  0  0  0  0  0  0  0  0  0
    8.3229   -1.3126   21.5406 C   0  0  0  0  0  0  0  0  0  0  0  0
    4.7023    0.9500   21.0463 C   0  0  0  0  0  0  0  0  0  0  0  0
    8.3985   -1.6716   23.0225 C   0  0  0  0  0  0  0  0  0  0  0  0
   13.6823   -1.4525   22.3370 C   0  0  0  0  0  0  0  0  0  0  0  0
    7.2041    0.1785   17.6494 N   0  0  0  0  0  0  0  0  0  0  0  0
    7.1766   -0.5711   21.2658 N   0  0  0  0  0  0  0  0  0  0  0  0
    9.1895   -1.6626   20.7459 O   0  0  0  0  0  0  0  0  0  0  0  0
   13.0919   -0.3120   22.9502 O   0  0  0  0  0  0  0  0  0  0  0  0
   13.4040   -2.5761   23.0315 F   0  0  0  0  0  0  0  0  0  0  0  0
   15.0253   -1.2934   22.3233 F   0  0  0  0  0  0  0  0  0  0  0  0
   13.2667   -1.5874   21.0598 F   0  0  0  0  0  0  0  0  0  0  0  0
   10.6533   -0.0854   26.7699 H   0  0  0  0  0  0  0  0  0  0  0  0
    8.6392   -0.9576   25.6317 H   0  0  0  0  0  0  0  0  0  0  0  0
   12.7617    0.2216   25.5100 H   0  0  0  0  0  0  0  0  0  0  0  0
    4.3082    1.7275   18.4803 H   0  0  0  0  0  0  0  0  0  0  0  0
   10.8426   -1.2211   21.9421 H   0  0  0  0  0  0  0  0  0  0  0  0
    5.8137    1.2384   16.5557 H   0  0  0  0  0  0  0  0  0  0  0  0
    8.4556   -0.8377   18.9262 H   0  0  0  0  0  0  0  0  0  0  0  0
    3.9599    0.1517   21.1605 H   0  0  0  0  0  0  0  0  0  0  0  0
    5.2848    1.0210   21.9732 H   0  0  0  0  0  0  0  0  0  0  0  0
    4.1744    1.9042   20.9270 H   0  0  0  0  0  0  0  0  0  0  0  0
    8.3544   -2.7698   23.1094 H   0  0  0  0  0  0  0  0  0  0  0  0
    7.4864   -1.2933   23.5129 H   0  0  0  0  0  0  0  0  0  0  0  0
    6.5671   -0.3754   22.0572 H   0  0  0  0  0  0  0  0  0  0  0  0
  1  2  2  0  0  0  0
  1  3  1  0  0  0  0
  2  8  1  0  0  0  0
  3 11  2  0  0  0  0
  4  6  2  0  0  0  0
  4  9  1  0  0  0  0
  5  8  2  0  0  0  0
  5 11  1  0  0  0  0
  6 16  1  0  0  0  0
  7 10  1  0  0  0  0
  7 16  2  0  0  0  0
  8 14  1  0  0  0  0
  9 10  2  0  0  0  0
  9 13  1  0  0  0  0
 10 17  1  0  0  0  0
 11 19  1  0  0  0  0
 12 14  1  0  0  0  0
 12 17  1  0  0  0  0
 12 18  2  0  0  0  0
 15 19  1  0  0  0  0
 15 20  1  0  0  0  0
 15 21  1  0  0  0  0
 15 22  1  0  0  0  0
  1 23  1  0  0  0  0
  2 24  1  0  0  0  0
  3 25  1  0  0  0  0
  4 26  1  0  0  0  0
  5 27  1  0  0  0  0
  6 28  1  0  0  0  0
  7 29  1  0  0  0  0
 13 30  1  0  0  0  0
 13 31  1  0  0  0  0
 13 32  1  0  0  0  0
 14 33  1  0  0  0  0
 14 34  1  0  0  0  0
 17 35  1  0  0  0  0
M  END
> <series>
3-aminopyridine-like

> <r_inhibition_at_20_uM>

> <r_inhibition_at_50_uM>
12.575

> <r_IC50>

> <f_inhibition_at_20_uM>
-3.1648979500000003

> <f_inhibition_at_50_uM>
-22.530474

> <f_avg_IC50>

> <f_avg_pIC50>

> <ASSAYED>
True

> <Hybrid2>
-10.099224

> <docked_fragment>
x0678

> <Mpro-_dock>
-5.580137

> <site>
active-noncovalent

$$$$
LON-WEI-b8d98729-38
  -OEChem-07042000473D

 54 57  0     1  0  0  0  0  0999 V2000
    6.7428   -6.2787   23.0524 C   0  0  0  0  0  0  0  0  0  0  0  0
    6.2152    0.5987   19.5050 C   0  0  0  0  0  0  0  0  0  0  0  0
    6.1823   -5.9197   24.2782 C   0  0  0  0  0  0  0  0  0  0  0  0
    7.0341    0.0433   20.4818 C   0  0  0  0  0  0  0  0  0  0  0  0
   13.6879    0.2709   22.6157 C   0  0  0  0  0  0  0  0  0  0  0  0
    7.4196   -5.3271   22.2895 C   0  0  0  0  0  0  0  0  0  0  0  0
   12.4086    0.6064   22.1630 C   0  0  0  0  0  0  0  0  0  0  0  0
    6.9755   -3.6574   23.9781 C   0  0  0  0  0  0  0  0  0  0  0  0
   11.5687   -1.5767   22.8017 C   0  0  0  0  0  0  0  0  0  0  0  0
    6.7141    0.6899   18.2155 C   0  0  0  0  0  0  0  0  0  0  0  0
    8.7138   -0.2623   18.8260 C   0  0  0  0  0  0  0  0  0  0  0  0
   14.9813   -2.7036   24.0996 C   0  0  0  0  0  0  0  0  0  0  0  0
    6.2986   -4.6090   24.7410 C   0  0  0  0  0  0  0  0  0  0  0  0
    8.3088   -0.3978   20.1441 C   0  0  0  0  0  0  0  0  0  0  0  0
   13.9219   -1.0055   23.1716 C   0  0  0  0  0  0  0  0  0  0  0  0
    7.5359   -4.0165   22.7523 C   0  0  0  0  0  0  0  0  0  0  0  0
   11.3642   -0.3069   22.2558 C   0  0  0  0  0  0  0  0  0  0  0  0
   12.8562   -1.9069   23.2545 C   0  0  0  0  0  0  0  0  0  0  0  0
    9.8185    1.9725   24.1866 C   0  0  0  0  0  0  0  0  0  0  0  0
   10.0646    2.2903   22.9117 C   0  0  0  0  0  0  0  0  0  0  0  0
    9.5977    1.3985   21.8099 C   0  0  0  0  0  0  0  0  0  0  0  0
    8.4328   -1.7092   22.2849 C   0  0  0  0  0  0  0  0  0  0  0  0
    4.2590   -3.7395   25.9116 C   0  0  0  0  0  0  0  0  0  0  0  0
    5.6993   -4.2257   26.0516 C   0  0  0  0  0  0  0  0  0  0  0  0
    9.2234   -1.0072   21.1837 C   0  0  2  0  0  0  0  0  0  0  0  0
    7.9466    0.2722   17.8496 N   0  0  0  0  0  0  0  0  0  0  0  0
   15.1321   -1.4762   23.6598 N   0  0  0  0  0  0  0  0  0  0  0  0
    8.2233   -3.0515   21.9784 N   0  0  0  0  0  0  0  0  0  0  0  0
   10.0938    0.0472   21.7980 N   0  0  0  0  0  0  0  0  0  0  0  0
    8.8399    1.8576   20.9548 O   0  0  0  0  0  0  0  0  0  0  0  0
    8.0479   -1.1091   23.2849 O   0  0  0  0  0  0  0  0  0  0  0  0
   13.4136   -3.3748   23.9668 S   0  0  0  0  0  0  0  0  0  0  0  0
    6.6526   -7.2994   22.6921 H   0  0  0  0  0  0  0  0  0  0  0  0
    5.2179    0.9490   19.7452 H   0  0  0  0  0  0  0  0  0  0  0  0
    5.6564   -6.6678   24.8649 H   0  0  0  0  0  0  0  0  0  0  0  0
    6.6710   -0.0420   21.5024 H   0  0  0  0  0  0  0  0  0  0  0  0
   14.4964    0.9924   22.5393 H   0  0  0  0  0  0  0  0  0  0  0  0
    7.8523   -5.6181   21.3356 H   0  0  0  0  0  0  0  0  0  0  0  0
   12.2431    1.5931   21.7367 H   0  0  0  0  0  0  0  0  0  0  0  0
    7.0642   -2.6356   24.3409 H   0  0  0  0  0  0  0  0  0  0  0  0
   10.7544   -2.2922   22.8762 H   0  0  0  0  0  0  0  0  0  0  0  0
    6.1146    1.1158   17.4176 H   0  0  0  0  0  0  0  0  0  0  0  0
    9.6976   -0.5887   18.5033 H   0  0  0  0  0  0  0  0  0  0  0  0
   15.8018   -3.2652   24.5248 H   0  0  0  0  0  0  0  0  0  0  0  0
   10.1397    2.6359   24.9829 H   0  0  0  0  0  0  0  0  0  0  0  0
    9.3072    1.0598   24.4719 H   0  0  0  0  0  0  0  0  0  0  0  0
   10.5646    3.2208   22.6689 H   0  0  0  0  0  0  0  0  0  0  0  0
    4.1963   -2.8904   25.2226 H   0  0  0  0  0  0  0  0  0  0  0  0
    3.8618   -3.4201   26.8802 H   0  0  0  0  0  0  0  0  0  0  0  0
    3.6120   -4.5343   25.5251 H   0  0  0  0  0  0  0  0  0  0  0  0
    5.7250   -5.0778   26.7499 H   0  0  0  0  0  0  0  0  0  0  0  0
    6.3000   -3.4370   26.5329 H   0  0  0  0  0  0  0  0  0  0  0  0
    9.8915   -1.7401   20.7148 H   0  0  0  0  0  0  0  0  0  0  0  0
    8.6096   -3.3763   21.0946 H   0  0  0  0  0  0  0  0  0  0  0  0
  1  3  1  0  0  0  0
  1  6  2  0  0  0  0
  2  4  2  0  0  0  0
  2 10  1  0  0  0  0
  3 13  2  0  0  0  0
  4 14  1  0  0  0  0
  5  7  2  0  0  0  0
  5 15  1  0  0  0  0
  6 16  1  0  0  0  0
  7 17  1  0  0  0  0
  8 13  1  0  0  0  0
  8 16  2  0  0  0  0
  9 17  2  0  0  0  0
  9 18  1  0  0  0  0
 10 26  2  0  0  0  0
 11 14  2  0  0  0  0
 11 26  1  0  0  0  0
 12 27  2  0  0  0  0
 12 32  1  0  0  0  0
 13 24  1  0  0  0  0
 14 25  1  0  0  0  0
 15 18  2  0  0  0  0
 15 27  1  0  0  0  0
 16 28  1  0  0  0  0
 17 29  1  0  0  0  0
 18 32  1  0  0  0  0
 19 20  2  0  0  0  0
 20 21  1  0  0  0  0
 21 29  1  0  0  0  0
 21 30  2  0  0  0  0
 22 25  1  0  0  0  0
 22 28  1  0  0  0  0
 22 31  2  0  0  0  0
 23 24  1  0  0  0  0
 25 29  1  0  0  0  0
  1 33  1  0  0  0  0
  2 34  1  0  0  0  0
  3 35  1  0  0  0  0
  4 36  1  0  0  0  0
  5 37  1  0  0  0  0
  6 38  1  0  0  0  0
  7 39  1  0  0  0  0
  8 40  1  0  0  0  0
  9 41  1  0  0  0  0
 10 42  1  0  0  0  0
 11 43  1  0  0  0  0
 12 44  1  0  0  0  0
 19 45  1  0  0  0  0
 19 46  1  0  0  0  0
 20 47  1  0  0  0  0
 23 48  1  0  0  0  0
 23 49  1  0  0  0  0
 23 50  1  0  0  0  0
 24 51  1  0  0  0  0
 24 52  1  0  0  0  0
 25 53  1  0  0  0  0
 28 54  1  0  0  0  0
M  END
> <series>
3-aminopyridine-like

> <r_inhibition_at_20_uM>
16.633092689999998

> <r_inhibition_at_50_uM>

> <r_IC50>
32.03061411909359

> <f_inhibition_at_20_uM>
33.876555

> <f_inhibition_at_50_uM>
59.258365000000005

> <f_avg_IC50>
59.02153277403574

> <f_avg_pIC50>
4.228989516173539

> <ASSAYED>
True

> <Hybrid2>
-10.098789

> <docked_fragment>
x0678

> <Mpro-_dock>
-7.483372

> <site>
active-noncovalent

$$$$
LON-WEI-b8d98729-18
  -OEChem-07042000473D

 63 65  0     1  0  0  0  0  0999 V2000
   14.7748   -1.9871   23.1587 C   0  0  0  0  0  0  0  0  0  0  0  0
    5.9007   -0.4407   19.2885 C   0  0  0  0  0  0  0  0  0  0  0  0
   14.3352   -1.9439   21.8357 C   0  0  0  0  0  0  0  0  0  0  0  0
   14.0132   -1.3953   24.1664 C   0  0  0  0  0  0  0  0  0  0  0  0
    6.6815   -0.1509   20.4019 C   0  0  0  0  0  0  0  0  0  0  0  0
    7.8692   -0.7725   24.8012 C   0  0  0  0  0  0  0  0  0  0  0  0
    7.7172   -1.9727   25.4866 C   0  0  0  0  0  0  0  0  0  0  0  0
    6.5244   -0.4818   18.0519 C   0  0  0  0  0  0  0  0  0  0  0  0
    8.5707    0.0206   18.9675 C   0  0  0  0  0  0  0  0  0  0  0  0
    7.8831   -1.9983   22.7631 C   0  0  0  0  0  0  0  0  0  0  0  0
    8.0429    0.0855   20.2469 C   0  0  0  0  0  0  0  0  0  0  0  0
   13.1339   -1.3090   21.5203 C   0  0  0  0  0  0  0  0  0  0  0  0
   12.8120   -0.7603   23.8510 C   0  0  0  0  0  0  0  0  0  0  0  0
    7.9545   -0.7769   23.4134 C   0  0  0  0  0  0  0  0  0  0  0  0
   12.3723   -0.7171   22.5280 C   0  0  0  0  0  0  0  0  0  0  0  0
    7.6562   -3.1406   24.7435 C   0  0  0  0  0  0  0  0  0  0  0  0
    7.0418    3.9092   22.2843 C   0  0  0  0  0  0  0  0  0  0  0  0
    7.8955    2.8811   22.3212 C   0  0  0  0  0  0  0  0  0  0  0  0
    7.5893    1.6775   23.1488 C   0  0  0  0  0  0  0  0  0  0  0  0
   10.0269   -0.6336   21.6125 C   0  0  0  0  0  0  0  0  0  0  0  0
   12.6894   -1.2791   20.0937 C   0  0  0  0  0  0  0  0  0  0  0  0
   12.1667    1.3817   24.9832 C   0  0  0  0  0  0  0  0  0  0  0  0
    6.7857   -5.5000   24.5736 C   0  0  0  0  0  0  0  0  0  0  0  0
    6.7591   -4.3033   26.7922 C   0  0  0  0  0  0  0  0  0  0  0  0
   12.0185   -0.1361   24.9529 C   0  0  0  0  0  0  0  0  0  0  0  0
    8.9194    0.4026   21.4384 C   0  0  2  0  0  0  0  0  0  0  0  0
    7.4938   -4.4469   25.4463 C   0  0  0  0  0  0  0  0  0  0  0  0
    7.8440   -0.2579   17.8621 N   0  0  0  0  0  0  0  0  0  0  0  0
    7.7356   -3.1845   23.3947 N   0  0  0  0  0  0  0  0  0  0  0  0
   11.1538   -0.0726   22.2081 N   0  0  0  0  0  0  0  0  0  0  0  0
    8.1132    0.4604   22.6692 N   0  0  0  0  0  0  0  0  0  0  0  0
    6.9079    1.8134   24.1654 O   0  0  0  0  0  0  0  0  0  0  0  0
    9.8859   -1.7962   21.2428 O   0  0  0  0  0  0  0  0  0  0  0  0
   15.7101   -2.4817   23.4045 H   0  0  0  0  0  0  0  0  0  0  0  0
    4.8375   -0.6286   19.3855 H   0  0  0  0  0  0  0  0  0  0  0  0
   14.9360   -2.4076   21.0577 H   0  0  0  0  0  0  0  0  0  0  0  0
   14.3645   -1.4351   25.1941 H   0  0  0  0  0  0  0  0  0  0  0  0
    6.2211   -0.1116   21.3854 H   0  0  0  0  0  0  0  0  0  0  0  0
    7.9192    0.1595   25.3578 H   0  0  0  0  0  0  0  0  0  0  0  0
    7.6498   -1.9828   26.5693 H   0  0  0  0  0  0  0  0  0  0  0  0
    5.9591   -0.7032   17.1526 H   0  0  0  0  0  0  0  0  0  0  0  0
    9.6265    0.1958   18.7848 H   0  0  0  0  0  0  0  0  0  0  0  0
    7.9443   -2.0658   21.6810 H   0  0  0  0  0  0  0  0  0  0  0  0
    7.2580    4.7719   21.6628 H   0  0  0  0  0  0  0  0  0  0  0  0
    6.1251    3.9270   22.8632 H   0  0  0  0  0  0  0  0  0  0  0  0
    8.7933    2.8963   21.7141 H   0  0  0  0  0  0  0  0  0  0  0  0
   12.0723   -2.1568   19.8708 H   0  0  0  0  0  0  0  0  0  0  0  0
   12.1046   -0.3763   19.8807 H   0  0  0  0  0  0  0  0  0  0  0  0
   13.5485   -1.2723   19.4121 H   0  0  0  0  0  0  0  0  0  0  0  0
   13.2176    1.6727   25.0865 H   0  0  0  0  0  0  0  0  0  0  0  0
   11.6129    1.8065   25.8263 H   0  0  0  0  0  0  0  0  0  0  0  0
   11.7820    1.8333   24.0626 H   0  0  0  0  0  0  0  0  0  0  0  0
    5.7823   -5.1724   24.2804 H   0  0  0  0  0  0  0  0  0  0  0  0
    6.6825   -6.4539   25.1023 H   0  0  0  0  0  0  0  0  0  0  0  0
    7.3575   -5.6847   23.6573 H   0  0  0  0  0  0  0  0  0  0  0  0
    5.7570   -3.8874   26.6387 H   0  0  0  0  0  0  0  0  0  0  0  0
    7.2982   -3.6357   27.4731 H   0  0  0  0  0  0  0  0  0  0  0  0
    6.6461   -5.2699   27.2953 H   0  0  0  0  0  0  0  0  0  0  0  0
   10.9534   -0.3938   24.8487 H   0  0  0  0  0  0  0  0  0  0  0  0
   12.3265   -0.5495   25.9257 H   0  0  0  0  0  0  0  0  0  0  0  0
    9.3832    1.3888   21.3135 H   0  0  0  0  0  0  0  0  0  0  0  0
    8.4879   -4.8691   25.6862 H   0  0  0  0  0  0  0  0  0  0  0  0
   11.0940    0.9166   22.4405 H   0  0  0  0  0  0  0  0  0  0  0  0
  1  3  1  0  0  0  0
  1  4  2  0  0  0  0
  2  5  2  0  0  0  0
  2  8  1  0  0  0  0
  3 12  2  0  0  0  0
  4 13  1  0  0  0  0
  5 11  1  0  0  0  0
  6  7  2  0  0  0  0
  6 14  1  0  0  0  0
  7 16  1  0  0  0  0
  8 28  2  0  0  0  0
  9 11  2  0  0  0  0
  9 28  1  0  0  0  0
 10 14  2  0  0  0  0
 10 29  1  0  0  0  0
 11 26  1  0  0  0  0
 12 15  1  0  0  0  0
 12 21  1  0  0  0  0
 13 15  2  0  0  0  0
 13 25  1  0  0  0  0
 14 31  1  0  0  0  0
 15 30  1  0  0  0  0
 16 27  1  0  0  0  0
 16 29  2  0  0  0  0
 17 18  2  0  0  0  0
 18 19  1  0  0  0  0
 19 31  1  0  0  0  0
 19 32  2  0  0  0  0
 20 26  1  0  0  0  0
 20 30  1  0  0  0  0
 20 33  2  0  0  0  0
 22 25  1  0  0  0  0
 23 27  1  0  0  0  0
 24 27  1  0  0  0  0
 26 31  1  0  0  0  0
  1 34  1  0  0  0  0
  2 35  1  0  0  0  0
  3 36  1  0  0  0  0
  4 37  1  0  0  0  0
  5 38  1  0  0  0  0
  6 39  1  0  0  0  0
  7 40  1  0  0  0  0
  8 41  1  0  0  0  0
  9 42  1  0  0  0  0
 10 43  1  0  0  0  0
 17 44  1  0  0  0  0
 17 45  1  0  0  0  0
 18 46  1  0  0  0  0
 21 47  1  0  0  0  0
 21 48  1  0  0  0  0
 21 49  1  0  0  0  0
 22 50  1  0  0  0  0
 22 51  1  0  0  0  0
 22 52  1  0  0  0  0
 23 53  1  0  0  0  0
 23 54  1  0  0  0  0
 23 55  1  0  0  0  0
 24 56  1  0  0  0  0
 24 57  1  0  0  0  0
 24 58  1  0  0  0  0
 25 59  1  0  0  0  0
 25 60  1  0  0  0  0
 26 61  1  0  0  0  0
 27 62  1  0  0  0  0
 30 63  1  0  0  0  0
M  END
> <series>
3-aminopyridine-like

> <r_inhibition_at_20_uM>
0.0

> <r_inhibition_at_50_uM>

> <r_IC50>

> <f_inhibition_at_20_uM>
5.6132675

> <f_inhibition_at_50_uM>
12.477995

> <f_avg_IC50>

> <f_avg_pIC50>

> <ASSAYED>
True

> <Hybrid2>
-10.072718

> <docked_fragment>
x0678

> <Mpro-_dock>
-7.514078

> <site>
active-noncovalent

$$$$
ALE-HEI-f28a35b5-4
  -OEChem-07042000473D

 25 26  0     0  0  0  0  0  0999 V2000
   13.8831   -0.9374   23.0785 C   0  0  0  0  0  0  0  0  0  0  0  0
   13.0624   -0.8921   21.9571 C   0  0  0  0  0  0  0  0  0  0  0  0
   13.3526   -0.5176   24.2878 C   0  0  0  0  0  0  0  0  0  0  0  0
   11.3196   -0.0378   23.3314 C   0  0  0  0  0  0  0  0  0  0  0  0
   11.7548   -0.4348   22.0774 C   0  0  0  0  0  0  0  0  0  0  0  0
    5.5546    0.9985   18.9491 C   0  0  0  0  0  0  0  0  0  0  0  0
    7.7955    0.2769   19.1050 C   0  0  0  0  0  0  0  0  0  0  0  0
    9.5612    0.0559   20.9086 C   0  0  0  0  0  0  0  0  0  0  0  0
    4.1888    1.5040   19.1921 C   0  0  0  0  0  0  0  0  0  0  0  0
   12.0875   -0.0674   24.4437 N   0  0  0  0  0  0  0  0  0  0  0  0
    6.0225    0.6051   17.7837 N   0  0  0  0  0  0  0  0  0  0  0  0
    7.3367    0.1809   17.8753 N   0  0  0  0  0  0  0  0  0  0  0  0
   10.9095   -0.3778   20.9719 N   0  0  0  0  0  0  0  0  0  0  0  0
    9.0826   -0.0510   19.5929 N   0  0  0  0  0  0  0  0  0  0  0  0
    8.9142    0.4636   21.8680 O   0  0  0  0  0  0  0  0  0  0  0  0
    6.6708    0.8877   20.2466 S   0  0  0  0  0  0  0  0  0  0  0  0
   14.9057   -1.2902   23.0082 H   0  0  0  0  0  0  0  0  0  0  0  0
   13.4516   -1.2151   20.9951 H   0  0  0  0  0  0  0  0  0  0  0  0
   13.9523   -0.5327   25.1919 H   0  0  0  0  0  0  0  0  0  0  0  0
   10.3093    0.3282   23.4886 H   0  0  0  0  0  0  0  0  0  0  0  0
    3.5019    0.6823   19.4523 H   0  0  0  0  0  0  0  0  0  0  0  0
    4.1601    2.2384   20.0149 H   0  0  0  0  0  0  0  0  0  0  0  0
    3.7756    2.0197   18.3085 H   0  0  0  0  0  0  0  0  0  0  0  0
   11.3175   -0.6920   20.0838 H   0  0  0  0  0  0  0  0  0  0  0  0
    9.7363   -0.4078   18.9005 H   0  0  0  0  0  0  0  0  0  0  0  0
  1  2  2  0  0  0  0
  1  3  1  0  0  0  0
  2  5  1  0  0  0  0
  3 10  2  0  0  0  0
  4  5  2  0  0  0  0
  4 10  1  0  0  0  0
  5 13  1  0  0  0  0
  6  9  1  0  0  0  0
  6 11  2  0  0  0  0
  6 16  1  0  0  0  0
  7 12  2  0  0  0  0
  7 14  1  0  0  0  0
  7 16  1  0  0  0  0
  8 13  1  0  0  0  0
  8 14  1  0  0  0  0
  8 15  2  0  0  0  0
 11 12  1  0  0  0  0
  1 17  1  0  0  0  0
  2 18  1  0  0  0  0
  3 19  1  0  0  0  0
  4 20  1  0  0  0  0
  9 21  1  0  0  0  0
  9 22  1  0  0  0  0
  9 23  1  0  0  0  0
 13 24  1  0  0  0  0
 14 25  1  0  0  0  0
M  END
> <series>
3-aminopyridine-like

> <r_inhibition_at_20_uM>
4.62

> <r_inhibition_at_50_uM>
8.86

> <r_IC50>

> <f_inhibition_at_20_uM>
1.18513685

> <f_inhibition_at_50_uM>
7.324259

> <f_avg_IC50>

> <f_avg_pIC50>

> <ASSAYED>
True

> <Hybrid2>
-10.058550

> <docked_fragment>
x0678

> <Mpro-_dock>
-4.743583

> <site>
active-noncovalent

$$$$
LON-WEI-b8d98729-44
  -OEChem-07042000473D

 48 51  0     1  0  0  0  0  0999 V2000
    5.9197   -0.3949   19.0931 C   0  0  0  0  0  0  0  0  0  0  0  0
    6.6510   -0.0682   20.2297 C   0  0  0  0  0  0  0  0  0  0  0  0
    7.7711   -1.8260   25.3447 C   0  0  0  0  0  0  0  0  0  0  0  0
    7.8139   -0.6205   24.6382 C   0  0  0  0  0  0  0  0  0  0  0  0
   12.5703   -0.0279   24.2154 C   0  0  0  0  0  0  0  0  0  0  0  0
   12.5139   -1.5448   22.3358 C   0  0  0  0  0  0  0  0  0  0  0  0
   13.7455   -0.6295   24.6656 C   0  0  0  0  0  0  0  0  0  0  0  0
   13.6891   -2.1464   22.7860 C   0  0  0  0  0  0  0  0  0  0  0  0
    7.9948   -1.8148   22.5359 C   0  0  0  0  0  0  0  0  0  0  0  0
    6.5533   -0.2990   17.8646 C   0  0  0  0  0  0  0  0  0  0  0  0
    8.5163    0.4015   18.8310 C   0  0  0  0  0  0  0  0  0  0  0  0
    7.8952   -5.2223   24.2621 C   0  0  0  0  0  0  0  0  0  0  0  0
    7.9747    0.3387   20.1048 C   0  0  0  0  0  0  0  0  0  0  0  0
    7.8405   -3.0505   24.6454 C   0  0  0  0  0  0  0  0  0  0  0  0
   11.9544   -0.4856   23.0505 C   0  0  0  0  0  0  0  0  0  0  0  0
    7.9244   -0.6173   23.2521 C   0  0  0  0  0  0  0  0  0  0  0  0
    7.9511   -3.0220   23.2519 C   0  0  0  0  0  0  0  0  0  0  0  0
   14.3049   -1.6887   23.9509 C   0  0  0  0  0  0  0  0  0  0  0  0
    7.4630    4.2318   22.8057 C   0  0  0  0  0  0  0  0  0  0  0  0
    7.4872    3.0311   22.2186 C   0  0  0  0  0  0  0  0  0  0  0  0
    7.3117    1.7919   23.0315 C   0  0  0  0  0  0  0  0  0  0  0  0
   10.0209   -0.2016   21.4609 C   0  0  0  0  0  0  0  0  0  0  0  0
    8.7970    0.7003   21.3220 C   0  0  2  0  0  0  0  0  0  0  0  0
    7.8373    0.0922   17.7037 N   0  0  0  0  0  0  0  0  0  0  0  0
    7.8095   -4.3177   25.2091 N   0  0  0  0  0  0  0  0  0  0  0  0
   10.7624    0.1250   22.5936 N   0  0  0  0  0  0  0  0  0  0  0  0
    7.9657    0.5972   22.5651 N   0  0  0  0  0  0  0  0  0  0  0  0
    6.6033    1.8367   24.0376 O   0  0  0  0  0  0  0  0  0  0  0  0
   10.2724   -1.0783   20.6385 O   0  0  0  0  0  0  0  0  0  0  0  0
    8.0161   -4.6395   22.6584 S   0  0  0  0  0  0  0  0  0  0  0  0
   15.7551   -2.4308   24.5065 Cl  0  0  0  0  0  0  0  0  0  0  0  0
    4.8866   -0.7147   19.1665 H   0  0  0  0  0  0  0  0  0  0  0  0
    6.1818   -0.1336   21.2076 H   0  0  0  0  0  0  0  0  0  0  0  0
    7.6837   -1.8169   26.4275 H   0  0  0  0  0  0  0  0  0  0  0  0
    7.7599    0.3151   25.1901 H   0  0  0  0  0  0  0  0  0  0  0  0
   12.1428    0.7965   24.7802 H   0  0  0  0  0  0  0  0  0  0  0  0
   12.0423   -1.9094   21.4269 H   0  0  0  0  0  0  0  0  0  0  0  0
   14.2147   -0.2626   25.5747 H   0  0  0  0  0  0  0  0  0  0  0  0
   14.1139   -2.9708   22.2193 H   0  0  0  0  0  0  0  0  0  0  0  0
    8.0804   -1.8156   21.4527 H   0  0  0  0  0  0  0  0  0  0  0  0
    6.0259   -0.5424   16.9480 H   0  0  0  0  0  0  0  0  0  0  0  0
    9.5442    0.7121   18.6713 H   0  0  0  0  0  0  0  0  0  0  0  0
    7.8898   -6.2817   24.4789 H   0  0  0  0  0  0  0  0  0  0  0  0
    7.5678    5.1307   22.2072 H   0  0  0  0  0  0  0  0  0  0  0  0
    7.3474    4.3549   23.8769 H   0  0  0  0  0  0  0  0  0  0  0  0
    7.5886    2.9528   21.1423 H   0  0  0  0  0  0  0  0  0  0  0  0
    9.1384    1.7403   21.2510 H   0  0  0  0  0  0  0  0  0  0  0  0
   10.4052    0.8924   23.1588 H   0  0  0  0  0  0  0  0  0  0  0  0
  1  2  2  0  0  0  0
  1 10  1  0  0  0  0
  2 13  1  0  0  0  0
  3  4  2  0  0  0  0
  3 14  1  0  0  0  0
  4 16  1  0  0  0  0
  5  7  2  0  0  0  0
  5 15  1  0  0  0  0
  6  8  1  0  0  0  0
  6 15  2  0  0  0  0
  7 18  1  0  0  0  0
  8 18  2  0  0  0  0
  9 16  2  0  0  0  0
  9 17  1  0  0  0  0
 10 24  2  0  0  0  0
 11 13  2  0  0  0  0
 11 24  1  0  0  0  0
 12 25  2  0  0  0  0
 12 30  1  0  0  0  0
 13 23  1  0  0  0  0
 14 17  2  0  0  0  0
 14 25  1  0  0  0  0
 15 26  1  0  0  0  0
 16 27  1  0  0  0  0
 17 30  1  0  0  0  0
 18 31  1  0  0  0  0
 19 20  2  0  0  0  0
 20 21  1  0  0  0  0
 21 27  1  0  0  0  0
 21 28  2  0  0  0  0
 22 23  1  0  0  0  0
 22 26  1  0  0  0  0
 22 29  2  0  0  0  0
 23 27  1  0  0  0  0
  1 32  1  0  0  0  0
  2 33  1  0  0  0  0
  3 34  1  0  0  0  0
  4 35  1  0  0  0  0
  5 36  1  0  0  0  0
  6 37  1  0  0  0  0
  7 38  1  0  0  0  0
  8 39  1  0  0  0  0
  9 40  1  0  0  0  0
 10 41  1  0  0  0  0
 11 42  1  0  0  0  0
 12 43  1  0  0  0  0
 19 44  1  0  0  0  0
 19 45  1  0  0  0  0
 20 46  1  0  0  0  0
 23 47  1  0  0  0  0
 26 48  1  0  0  0  0
M  END
> <series>
3-aminopyridine-like

> <r_inhibition_at_20_uM>
2.5704526530000003

> <r_inhibition_at_50_uM>

> <r_IC50>

> <f_inhibition_at_20_uM>
8.954919

> <f_inhibition_at_50_uM>
25.263735

> <f_avg_IC50>

> <f_avg_pIC50>

> <ASSAYED>
True

> <Hybrid2>
-10.054485

> <docked_fragment>
x0678

> <Mpro-_dock>
-6.01749

> <site>
active-noncovalent

$$$$
DAR-DIA-842b4336-3
  -OEChem-07042000473D

 27 28  0     0  0  0  0  0  0999 V2000
    5.9856    1.2247   19.3553 C   0  0  0  0  0  0  0  0  0  0  0  0
    6.8945    0.9737   20.3772 C   0  0  0  0  0  0  0  0  0  0  0  0
   14.3589   -1.9717   22.4937 C   0  0  0  0  0  0  0  0  0  0  0  0
   13.2120   -1.5776   21.7456 C   0  0  0  0  0  0  0  0  0  0  0  0
    6.3518    0.8833   18.0634 C   0  0  0  0  0  0  0  0  0  0  0  0
    8.3948    0.0928   18.7557 C   0  0  0  0  0  0  0  0  0  0  0  0
    8.1244    0.3973   20.0801 C   0  0  0  0  0  0  0  0  0  0  0  0
   14.2107   -1.7187   23.8397 C   0  0  0  0  0  0  0  0  0  0  0  0
   12.2308   -1.0386   22.5485 C   0  0  0  0  0  0  0  0  0  0  0  0
   10.3448   -0.4427   20.9652 C   0  0  0  0  0  0  0  0  0  0  0  0
   15.1680   -1.9799   24.9365 C   0  0  0  0  0  0  0  0  0  0  0  0
    7.5372    0.3218   17.7361 N   0  0  0  0  0  0  0  0  0  0  0  0
    9.0550    0.1344   21.0824 N   0  0  0  0  0  0  0  0  0  0  0  0
   10.9507   -0.5275   22.2290 N   0  0  0  0  0  0  0  0  0  0  0  0
   10.8502   -0.8113   19.9098 O   0  0  0  0  0  0  0  0  0  0  0  0
   12.6937   -1.0091   24.1969 S   0  0  0  0  0  0  0  0  0  0  0  0
    5.0210    1.6733   19.5638 H   0  0  0  0  0  0  0  0  0  0  0  0
    6.6344    1.2311   21.4006 H   0  0  0  0  0  0  0  0  0  0  0  0
   15.2462   -2.4174   22.0622 H   0  0  0  0  0  0  0  0  0  0  0  0
   13.1162   -1.6863   20.6727 H   0  0  0  0  0  0  0  0  0  0  0  0
    5.6785    1.0595   17.2309 H   0  0  0  0  0  0  0  0  0  0  0  0
    9.3376   -0.3587   18.4614 H   0  0  0  0  0  0  0  0  0  0  0  0
   15.8287   -1.1138   25.0977 H   0  0  0  0  0  0  0  0  0  0  0  0
   14.6542   -2.1943   25.8878 H   0  0  0  0  0  0  0  0  0  0  0  0
   15.8040   -2.8555   24.7268 H   0  0  0  0  0  0  0  0  0  0  0  0
    8.7687    0.3932   22.0337 H   0  0  0  0  0  0  0  0  0  0  0  0
   10.4078   -0.1812   23.0160 H   0  0  0  0  0  0  0  0  0  0  0  0
  1  2  2  0  0  0  0
  1  5  1  0  0  0  0
  2  7  1  0  0  0  0
  3  4  1  0  0  0  0
  3  8  2  0  0  0  0
  4  9  2  0  0  0  0
  5 12  2  0  0  0  0
  6  7  2  0  0  0  0
  6 12  1  0  0  0  0
  7 13  1  0  0  0  0
  8 11  1  0  0  0  0
  8 16  1  0  0  0  0
  9 14  1  0  0  0  0
  9 16  1  0  0  0  0
 10 13  1  0  0  0  0
 10 14  1  0  0  0  0
 10 15  2  0  0  0  0
  1 17  1  0  0  0  0
  2 18  1  0  0  0  0
  3 19  1  0  0  0  0
  4 20  1  0  0  0  0
  5 21  1  0  0  0  0
  6 22  1  0  0  0  0
 11 23  1  0  0  0  0
 11 24  1  0  0  0  0
 11 25  1  0  0  0  0
 13 26  1  0  0  0  0
 14 27  1  0  0  0  0
M  END
> <series>
3-aminopyridine-like

> <r_inhibition_at_20_uM>
2.6175

> <r_inhibition_at_50_uM>
28.585

> <r_IC50>

> <f_inhibition_at_20_uM>
1.901842

> <f_inhibition_at_50_uM>
11.320110000000001

> <f_avg_IC50>

> <f_avg_pIC50>

> <ASSAYED>
True

> <Hybrid2>
-10.044557

> <docked_fragment>
x0678

> <Mpro-_dock>
-5.229851

> <site>
active-noncovalent

$$$$
BAR-COM-0f94fc3d-28
  -OEChem-07042000473D

 37 39  0     0  0  0  0  0  0999 V2000
    5.4582    0.6369   19.0267 C   0  0  0  0  0  0  0  0  0  0  0  0
   12.0251    0.3860   24.2345 C   0  0  0  0  0  0  0  0  0  0  0  0
   11.9748   -0.3243   21.9240 C   0  0  0  0  0  0  0  0  0  0  0  0
    6.1161    0.3006   17.8545 C   0  0  0  0  0  0  0  0  0  0  0  0
    8.1653    0.3228   18.8930 C   0  0  0  0  0  0  0  0  0  0  0  0
    6.2233    0.8184   20.1734 C   0  0  0  0  0  0  0  0  0  0  0  0
   11.4496    0.4420   22.9650 C   0  0  0  0  0  0  0  0  0  0  0  0
    7.6034    0.6603   20.1138 C   0  0  0  0  0  0  0  0  0  0  0  0
   13.1298   -0.4358   24.4598 C   0  0  0  0  0  0  0  0  0  0  0  0
   13.6383   -1.2240   23.4244 C   0  0  0  0  0  0  0  0  0  0  0  0
   13.0703   -1.1575   22.1519 C   0  0  0  0  0  0  0  0  0  0  0  0
    9.7465    1.2720   21.2877 C   0  0  0  0  0  0  0  0  0  0  0  0
   14.9680   -1.0201   25.7501 C   0  0  0  0  0  0  0  0  0  0  0  0
   14.9731   -2.3222   24.9733 C   0  0  0  0  0  0  0  0  0  0  0  0
    5.5400    1.1820   21.4507 C   0  0  0  0  0  0  0  0  0  0  0  0
   10.2680    1.3191   22.7216 C   0  0  0  0  0  0  0  0  0  0  0  0
    7.4547    0.1383   17.7578 N   0  0  0  0  0  0  0  0  0  0  0  0
    8.4251    0.8338   21.2529 N   0  0  0  0  0  0  0  0  0  0  0  0
   10.4492    1.5894   20.3335 O   0  0  0  0  0  0  0  0  0  0  0  0
   13.6647   -0.4316   25.7215 O   0  0  0  0  0  0  0  0  0  0  0  0
   14.6989   -2.0755   23.5913 O   0  0  0  0  0  0  0  0  0  0  0  0
   13.7009   -2.0745   20.8315 Cl  0  0  0  0  0  0  0  0  0  0  0  0
    4.3798    0.7530   19.0395 H   0  0  0  0  0  0  0  0  0  0  0  0
   11.6079    0.9726   25.0494 H   0  0  0  0  0  0  0  0  0  0  0  0
   11.5257   -0.2648   20.9349 H   0  0  0  0  0  0  0  0  0  0  0  0
    5.5648    0.1481   16.9325 H   0  0  0  0  0  0  0  0  0  0  0  0
    9.2369    0.1850   18.7829 H   0  0  0  0  0  0  0  0  0  0  0  0
   15.2608   -1.1723   26.7964 H   0  0  0  0  0  0  0  0  0  0  0  0
   15.6655   -0.3067   25.3007 H   0  0  0  0  0  0  0  0  0  0  0  0
   15.9385   -2.8370   25.0526 H   0  0  0  0  0  0  0  0  0  0  0  0
   14.1959   -2.9932   25.3519 H   0  0  0  0  0  0  0  0  0  0  0  0
    5.2615    0.2772   22.0033 H   0  0  0  0  0  0  0  0  0  0  0  0
    6.1902    1.7944   22.0876 H   0  0  0  0  0  0  0  0  0  0  0  0
    4.6330    1.7695   21.2617 H   0  0  0  0  0  0  0  0  0  0  0  0
    9.4400    1.0418   23.3945 H   0  0  0  0  0  0  0  0  0  0  0  0
   10.5143    2.3665   22.9617 H   0  0  0  0  0  0  0  0  0  0  0  0
    8.0008    0.6126   22.1514 H   0  0  0  0  0  0  0  0  0  0  0  0
  1  4  2  0  0  0  0
  1  6  1  0  0  0  0
  2  7  2  0  0  0  0
  2  9  1  0  0  0  0
  3  7  1  0  0  0  0
  3 11  2  0  0  0  0
  4 17  1  0  0  0  0
  5  8  1  0  0  0  0
  5 17  2  0  0  0  0
  6  8  2  0  0  0  0
  6 15  1  0  0  0  0
  7 16  1  0  0  0  0
  8 18  1  0  0  0  0
  9 10  2  0  0  0  0
  9 20  1  0  0  0  0
 10 11  1  0  0  0  0
 10 21  1  0  0  0  0
 11 22  1  0  0  0  0
 12 16  1  0  0  0  0
 12 18  1  0  0  0  0
 12 19  2  0  0  0  0
 13 14  1  0  0  0  0
 13 20  1  0  0  0  0
 14 21  1  0  0  0  0
  1 23  1  0  0  0  0
  2 24  1  0  0  0  0
  3 25  1  0  0  0  0
  4 26  1  0  0  0  0
  5 27  1  0  0  0  0
 13 28  1  0  0  0  0
 13 29  1  0  0  0  0
 14 30  1  0  0  0  0
 14 31  1  0  0  0  0
 15 32  1  0  0  0  0
 15 33  1  0  0  0  0
 15 34  1  0  0  0  0
 16 35  1  0  0  0  0
 16 36  1  0  0  0  0
 18 37  1  0  0  0  0
M  END
> <series>
3-aminopyridine-like

> <r_inhibition_at_20_uM>

> <r_inhibition_at_50_uM>
10.935

> <r_IC50>

> <f_inhibition_at_20_uM>
9.8295725

> <f_inhibition_at_50_uM>
22.162670000000002

> <f_avg_IC50>

> <f_avg_pIC50>

> <ASSAYED>
True

> <Hybrid2>
-10.040518

> <docked_fragment>
x0678

> <Mpro-_dock>
-6.104174

> <site>
active-noncovalent

$$$$
LON-WEI-b8d98729-24
  -OEChem-07042000473D

 50 52  0     1  0  0  0  0  0999 V2000
    6.2772    0.6652   19.6237 C   0  0  0  0  0  0  0  0  0  0  0  0
    7.1169    0.0747   20.5615 C   0  0  0  0  0  0  0  0  0  0  0  0
   12.6894    0.0699   21.8014 C   0  0  0  0  0  0  0  0  0  0  0  0
   11.6485   -1.9638   22.5873 C   0  0  0  0  0  0  0  0  0  0  0  0
    7.1473   -5.2283   22.5956 C   0  0  0  0  0  0  0  0  0  0  0  0
    6.9957   -3.4541   24.2285 C   0  0  0  0  0  0  0  0  0  0  0  0
   13.9397   -0.4288   22.1669 C   0  0  0  0  0  0  0  0  0  0  0  0
   12.8988   -2.4625   22.9528 C   0  0  0  0  0  0  0  0  0  0  0  0
    6.4477   -6.0773   23.4531 C   0  0  0  0  0  0  0  0  0  0  0  0
    6.2961   -4.3031   25.0860 C   0  0  0  0  0  0  0  0  0  0  0  0
    6.6772    0.6544   18.2971 C   0  0  0  0  0  0  0  0  0  0  0  0
    8.6228   -0.4594   18.7999 C   0  0  0  0  0  0  0  0  0  0  0  0
    8.3140   -0.5005   20.1500 C   0  0  0  0  0  0  0  0  0  0  0  0
    7.4214   -3.9167   22.9833 C   0  0  0  0  0  0  0  0  0  0  0  0
   11.5437   -0.6976   22.0116 C   0  0  0  0  0  0  0  0  0  0  0  0
   14.0445   -1.6950   22.7425 C   0  0  0  0  0  0  0  0  0  0  0  0
    6.0221   -5.6147   24.6983 C   0  0  0  0  0  0  0  0  0  0  0  0
   10.9888    3.2669   22.5036 C   0  0  0  0  0  0  0  0  0  0  0  0
   10.6670    1.9859   22.7095 C   0  0  0  0  0  0  0  0  0  0  0  0
    9.9700    1.2044   21.6461 C   0  0  0  0  0  0  0  0  0  0  0  0
    8.4875   -1.7277   22.3368 C   0  0  0  0  0  0  0  0  0  0  0  0
   15.3681   -2.5655   24.9794 C   0  0  0  0  0  0  0  0  0  0  0  0
    9.2487   -1.1513   21.1456 C   0  0  2  0  0  0  0  0  0  0  0  0
    7.8325    0.1053   17.8595 N   0  0  0  0  0  0  0  0  0  0  0  0
    8.1307   -3.0552   22.1131 N   0  0  0  0  0  0  0  0  0  0  0  0
   10.2416   -0.1783   21.6309 N   0  0  0  0  0  0  0  0  0  0  0  0
    9.2298    1.7979   20.8614 O   0  0  0  0  0  0  0  0  0  0  0  0
    8.2413   -1.0524   23.3325 O   0  0  0  0  0  0  0  0  0  0  0  0
   15.6419   -2.3318   23.2094 S   0  0  0  0  0  0  0  0  0  0  0  0
    5.1588   -6.6626   25.7563 Cl  0  0  0  0  0  0  0  0  0  0  0  0
    5.3391    1.1194   19.9216 H   0  0  0  0  0  0  0  0  0  0  0  0
    6.8305    0.0672   21.6097 H   0  0  0  0  0  0  0  0  0  0  0  0
   12.6193    1.0581   21.3537 H   0  0  0  0  0  0  0  0  0  0  0  0
   10.7624   -2.5707   22.7558 H   0  0  0  0  0  0  0  0  0  0  0  0
    7.4746   -5.5991   21.6277 H   0  0  0  0  0  0  0  0  0  0  0  0
    7.2038   -2.4340   24.5407 H   0  0  0  0  0  0  0  0  0  0  0  0
   14.8212    0.1840   21.9953 H   0  0  0  0  0  0  0  0  0  0  0  0
   12.9606   -3.4516   23.4000 H   0  0  0  0  0  0  0  0  0  0  0  0
    6.2410   -7.0968   23.1380 H   0  0  0  0  0  0  0  0  0  0  0  0
    5.9705   -3.9295   26.0534 H   0  0  0  0  0  0  0  0  0  0  0  0
    6.0577    1.1024   17.5272 H   0  0  0  0  0  0  0  0  0  0  0  0
    9.5431   -0.8919   18.4197 H   0  0  0  0  0  0  0  0  0  0  0  0
   11.5161    3.8240   23.2709 H   0  0  0  0  0  0  0  0  0  0  0  0
   10.7375    3.7915   21.5884 H   0  0  0  0  0  0  0  0  0  0  0  0
   10.9514    1.4943   23.6326 H   0  0  0  0  0  0  0  0  0  0  0  0
   16.2724   -2.9635   25.4461 H   0  0  0  0  0  0  0  0  0  0  0  0
   14.5463   -3.2680   25.1381 H   0  0  0  0  0  0  0  0  0  0  0  0
   15.1164   -1.6097   25.4453 H   0  0  0  0  0  0  0  0  0  0  0  0
    9.8064   -1.9638   20.6638 H   0  0  0  0  0  0  0  0  0  0  0  0
    8.4132   -3.4521   21.2194 H   0  0  0  0  0  0  0  0  0  0  0  0
  1  2  2  0  0  0  0
  1 11  1  0  0  0  0
  2 13  1  0  0  0  0
  3  7  2  0  0  0  0
  3 15  1  0  0  0  0
  4  8  1  0  0  0  0
  4 15  2  0  0  0  0
  5  9  2  0  0  0  0
  5 14  1  0  0  0  0
  6 10  1  0  0  0  0
  6 14  2  0  0  0  0
  7 16  1  0  0  0  0
  8 16  2  0  0  0  0
  9 17  1  0  0  0  0
 10 17  2  0  0  0  0
 11 24  2  0  0  0  0
 12 13  2  0  0  0  0
 12 24  1  0  0  0  0
 13 23  1  0  0  0  0
 14 25  1  0  0  0  0
 15 26  1  0  0  0  0
 16 29  1  0  0  0  0
 17 30  1  0  0  0  0
 18 19  2  0  0  0  0
 19 20  1  0  0  0  0
 20 26  1  0  0  0  0
 20 27  2  0  0  0  0
 21 23  1  0  0  0  0
 21 25  1  0  0  0  0
 21 28  2  0  0  0  0
 22 29  1  0  0  0  0
 23 26  1  0  0  0  0
  1 31  1  0  0  0  0
  2 32  1  0  0  0  0
  3 33  1  0  0  0  0
  4 34  1  0  0  0  0
  5 35  1  0  0  0  0
  6 36  1  0  0  0  0
  7 37  1  0  0  0  0
  8 38  1  0  0  0  0
  9 39  1  0  0  0  0
 10 40  1  0  0  0  0
 11 41  1  0  0  0  0
 12 42  1  0  0  0  0
 18 43  1  0  0  0  0
 18 44  1  0  0  0  0
 19 45  1  0  0  0  0
 22 46  1  0  0  0  0
 22 47  1  0  0  0  0
 22 48  1  0  0  0  0
 23 49  1  0  0  0  0
 25 50  1  0  0  0  0
M  END
> <series>
3-aminopyridine-like

> <r_inhibition_at_20_uM>
9.39703267

> <r_inhibition_at_50_uM>

> <r_IC50>

> <f_inhibition_at_20_uM>
16.89356

> <f_inhibition_at_50_uM>
32.28805

> <f_avg_IC50>

> <f_avg_pIC50>

> <ASSAYED>
True

> <Hybrid2>
-10.019180

> <docked_fragment>
x0678

> <Mpro-_dock>
-6.771246

> <site>
active-noncovalent

$$$$
TRY-UNI-2eddb1ff-2
  -OEChem-07042000473D

 30 31  0     0  0  0  0  0  0999 V2000
    5.3551    1.2574   19.0023 C   0  0  0  0  0  0  0  0  0  0  0  0
   11.2935   -1.0727   22.7824 C   0  0  0  0  0  0  0  0  0  0  0  0
    6.0345    0.8915   17.8515 C   0  0  0  0  0  0  0  0  0  0  0  0
   10.3442   -0.7553   24.9399 C   0  0  0  0  0  0  0  0  0  0  0  0
    7.5821   -0.3186   19.0425 C   0  0  0  0  0  0  0  0  0  0  0  0
   12.5665   -0.2666   24.6225 C   0  0  0  0  0  0  0  0  0  0  0  0
    5.8411    0.7943   20.2200 C   0  0  0  0  0  0  0  0  0  0  0  0
   10.1846   -1.1402   23.6185 C   0  0  0  0  0  0  0  0  0  0  0  0
    6.9755   -0.0092   20.2492 C   0  0  0  0  0  0  0  0  0  0  0  0
   12.5110   -0.6287   23.2863 C   0  0  0  0  0  0  0  0  0  0  0  0
    8.6297   -1.3141   21.6296 C   0  0  0  0  0  0  0  0  0  0  0  0
    5.1286    1.1740   21.4765 C   0  0  0  0  0  0  0  0  0  0  0  0
    8.8517   -1.6164   23.1033 C   0  0  0  0  0  0  0  0  0  0  0  0
    7.1394    0.1126   17.8401 N   0  0  0  0  0  0  0  0  0  0  0  0
   11.5108   -0.3187   25.4654 N   0  0  0  0  0  0  0  0  0  0  0  0
    7.5005   -0.4982   21.4451 N   0  0  0  0  0  0  0  0  0  0  0  0
    9.3678   -1.7509   20.7524 O   0  0  0  0  0  0  0  0  0  0  0  0
   13.8997   -0.5301   22.2852 Cl  0  0  0  0  0  0  0  0  0  0  0  0
    4.4730    1.8860   18.9452 H   0  0  0  0  0  0  0  0  0  0  0  0
   11.2042   -1.3674   21.7393 H   0  0  0  0  0  0  0  0  0  0  0  0
    5.6961    1.2267   16.8766 H   0  0  0  0  0  0  0  0  0  0  0  0
    9.5144   -0.7871   25.6394 H   0  0  0  0  0  0  0  0  0  0  0  0
    8.4704   -0.9419   19.0001 H   0  0  0  0  0  0  0  0  0  0  0  0
   13.4874    0.0883   25.0757 H   0  0  0  0  0  0  0  0  0  0  0  0
    4.3561    0.4334   21.7137 H   0  0  0  0  0  0  0  0  0  0  0  0
    5.8238    1.2373   22.3227 H   0  0  0  0  0  0  0  0  0  0  0  0
    4.6523    2.1576   21.3803 H   0  0  0  0  0  0  0  0  0  0  0  0
    8.7630   -2.6994   23.2572 H   0  0  0  0  0  0  0  0  0  0  0  0
    8.0458   -1.1504   23.6844 H   0  0  0  0  0  0  0  0  0  0  0  0
    6.9984   -0.2278   22.2990 H   0  0  0  0  0  0  0  0  0  0  0  0
  1  3  2  0  0  0  0
  1  7  1  0  0  0  0
  2  8  2  0  0  0  0
  2 10  1  0  0  0  0
  3 14  1  0  0  0  0
  4  8  1  0  0  0  0
  4 15  2  0  0  0  0
  5  9  1  0  0  0  0
  5 14  2  0  0  0  0
  6 10  2  0  0  0  0
  6 15  1  0  0  0  0
  7  9  2  0  0  0  0
  7 12  1  0  0  0  0
  8 13  1  0  0  0  0
  9 16  1  0  0  0  0
 10 18  1  0  0  0  0
 11 13  1  0  0  0  0
 11 16  1  0  0  0  0
 11 17  2  0  0  0  0
  1 19  1  0  0  0  0
  2 20  1  0  0  0  0
  3 21  1  0  0  0  0
  4 22  1  0  0  0  0
  5 23  1  0  0  0  0
  6 24  1  0  0  0  0
 12 25  1  0  0  0  0
 12 26  1  0  0  0  0
 12 27  1  0  0  0  0
 13 28  1  0  0  0  0
 13 29  1  0  0  0  0
 16 30  1  0  0  0  0
M  END
> <series>
3-aminopyridine-like

> <r_inhibition_at_20_uM>

> <r_inhibition_at_50_uM>
71.44

> <r_IC50>

> <f_inhibition_at_20_uM>
28.841385

> <f_inhibition_at_50_uM>
46.01123

> <f_avg_IC50>

> <f_avg_pIC50>

> <ASSAYED>
True

> <Hybrid2>
-10.014794

> <docked_fragment>
x0678

> <Mpro-_dock>
-5.867702

> <site>
active-noncovalent

$$$$
BEN-DND-61647d40-8
  -OEChem-07042000473D

 29 30  0     0  0  0  0  0  0999 V2000
   14.2965   -1.9478   22.1945 C   0  0  0  0  0  0  0  0  0  0  0  0
    5.8132    1.0749   19.0263 C   0  0  0  0  0  0  0  0  0  0  0  0
   13.6741   -0.5542   24.1049 C   0  0  0  0  0  0  0  0  0  0  0  0
    6.1572    0.4524   20.2210 C   0  0  0  0  0  0  0  0  0  0  0  0
   12.7092    0.1301   24.8439 C   0  0  0  0  0  0  0  0  0  0  0  0
   11.9756   -1.2555   22.5364 C   0  0  0  0  0  0  0  0  0  0  0  0
    6.6239    0.8563   17.9241 C   0  0  0  0  0  0  0  0  0  0  0  0
    8.0303   -0.5129   19.1182 C   0  0  0  0  0  0  0  0  0  0  0  0
   13.3074   -1.2470   22.9511 C   0  0  0  0  0  0  0  0  0  0  0  0
    7.2855   -0.3582   20.2764 C   0  0  0  0  0  0  0  0  0  0  0  0
   11.0106   -0.5712   23.2754 C   0  0  0  0  0  0  0  0  0  0  0  0
   11.3774    0.1215   24.4292 C   0  0  0  0  0  0  0  0  0  0  0  0
    9.1841   -1.2619   21.6842 C   0  0  0  0  0  0  0  0  0  0  0  0
    7.6843   -1.0468   21.5553 C   0  0  0  0  0  0  0  0  0  0  0  0
   15.0998   -2.5169   21.5800 N   0  0  0  0  0  0  0  0  0  0  0  0
    7.7275    0.0756   17.9394 N   0  0  0  0  0  0  0  0  0  0  0  0
    9.6857   -0.6097   22.8176 N   0  0  0  0  0  0  0  0  0  0  0  0
   10.5093    0.7594   25.1277 O   0  5  0  0  0  0  0  0  0  0  0  0
    9.8232   -1.9258   20.8743 O   0  0  0  0  0  0  0  0  0  0  0  0
    4.9379    1.7110   18.9598 H   0  0  0  0  0  0  0  0  0  0  0  0
   14.7083   -0.5385   24.4407 H   0  0  0  0  0  0  0  0  0  0  0  0
    5.5409    0.6044   21.1029 H   0  0  0  0  0  0  0  0  0  0  0  0
   13.0241    0.6623   25.7404 H   0  0  0  0  0  0  0  0  0  0  0  0
   11.6878   -1.7957   21.6361 H   0  0  0  0  0  0  0  0  0  0  0  0
    6.3986    1.3194   16.9691 H   0  0  0  0  0  0  0  0  0  0  0  0
    8.9209   -1.1334   19.1006 H   0  0  0  0  0  0  0  0  0  0  0  0
    7.3386   -0.4575   22.4141 H   0  0  0  0  0  0  0  0  0  0  0  0
    7.1813   -2.0200   21.6203 H   0  0  0  0  0  0  0  0  0  0  0  0
    9.0011   -0.0984   23.3809 H   0  0  0  0  0  0  0  0  0  0  0  0
  1  9  1  0  0  0  0
  1 15  3  0  0  0  0
  2  4  2  0  0  0  0
  2  7  1  0  0  0  0
  3  5  2  0  0  0  0
  3  9  1  0  0  0  0
  4 10  1  0  0  0  0
  5 12  1  0  0  0  0
  6  9  2  0  0  0  0
  6 11  1  0  0  0  0
  7 16  2  0  0  0  0
  8 10  2  0  0  0  0
  8 16  1  0  0  0  0
 10 14  1  0  0  0  0
 11 12  2  0  0  0  0
 11 17  1  0  0  0  0
 12 18  1  0  0  0  0
 13 14  1  0  0  0  0
 13 17  1  0  0  0  0
 13 19  2  0  0  0  0
  2 20  1  0  0  0  0
  3 21  1  0  0  0  0
  4 22  1  0  0  0  0
  5 23  1  0  0  0  0
  6 24  1  0  0  0  0
  7 25  1  0  0  0  0
  8 26  1  0  0  0  0
 14 27  1  0  0  0  0
 14 28  1  0  0  0  0
 17 29  1  0  0  0  0
M  CHG  1  18  -1
M  END
> <series>
3-aminopyridine-like

> <r_inhibition_at_20_uM>

> <r_inhibition_at_50_uM>
0.0

> <r_IC50>

> <f_inhibition_at_20_uM>
-15.414861499999999

> <f_inhibition_at_50_uM>
-8.484955000000001

> <f_avg_IC50>

> <f_avg_pIC50>

> <ASSAYED>
True

> <Hybrid2>
-10.000115

> <docked_fragment>
x0678

> <Mpro-_dock>
-6.63995

> <site>
active-noncovalent

$$$$
LON-WEI-d1c9908a-10
  -OEChem-07042000473D

 67 69  0     1  0  0  0  0  0999 V2000
   14.4479   -1.8085   23.4647 C   0  0  0  0  0  0  0  0  0  0  0  0
    5.8886    0.1769   19.1154 C   0  0  0  0  0  0  0  0  0  0  0  0
   14.0712   -1.7966   22.1218 C   0  0  0  0  0  0  0  0  0  0  0  0
   13.6877   -1.1177   24.4085 C   0  0  0  0  0  0  0  0  0  0  0  0
    6.6386    0.4629   20.2507 C   0  0  0  0  0  0  0  0  0  0  0  0
    7.2539   -1.0039   25.5304 C   0  0  0  0  0  0  0  0  0  0  0  0
    7.2546   -2.3992   23.5580 C   0  0  0  0  0  0  0  0  0  0  0  0
    7.5500    0.1089   24.7433 C   0  0  0  0  0  0  0  0  0  0  0  0
    7.5506   -1.2863   22.7709 C   0  0  0  0  0  0  0  0  0  0  0  0
    6.5615    0.0337   17.9127 C   0  0  0  0  0  0  0  0  0  0  0  0
    8.5967    0.4329   18.9011 C   0  0  0  0  0  0  0  0  0  0  0  0
    7.1062   -2.2580   24.9378 C   0  0  0  0  0  0  0  0  0  0  0  0
    8.0191    0.5950   20.1501 C   0  0  0  0  0  0  0  0  0  0  0  0
   12.9344   -1.0940   21.7225 C   0  0  0  0  0  0  0  0  0  0  0  0
   12.5508   -0.4150   24.0092 C   0  0  0  0  0  0  0  0  0  0  0  0
    7.6983   -0.0323   23.3636 C   0  0  0  0  0  0  0  0  0  0  0  0
   12.1741   -0.4031   22.6662 C   0  0  0  0  0  0  0  0  0  0  0  0
    8.2040    4.7510   22.4745 C   0  0  0  0  0  0  0  0  0  0  0  0
    8.0093    3.5179   21.9964 C   0  0  0  0  0  0  0  0  0  0  0  0
    7.5737    2.4178   22.9060 C   0  0  0  0  0  0  0  0  0  0  0  0
    9.8836   -0.1973   21.6381 C   0  0  0  0  0  0  0  0  0  0  0  0
   12.5564   -1.0999   20.2765 C   0  0  0  0  0  0  0  0  0  0  0  0
   10.8869   -0.6244   25.8730 C   0  0  0  0  0  0  0  0  0  0  0  0
    5.4389   -3.2612   26.5376 C   0  0  0  0  0  0  0  0  0  0  0  0
    7.8987   -3.6959   26.8486 C   0  0  0  0  0  0  0  0  0  0  0  0
    6.6489   -4.8001   25.0047 C   0  0  0  0  0  0  0  0  0  0  0  0
   11.7571    0.3148   25.0440 C   0  0  0  0  0  0  0  0  0  0  0  0
    8.8630    0.9051   21.3667 C   0  0  2  0  0  0  0  0  0  0  0  0
    6.7799   -3.4847   25.8056 C   0  0  0  0  0  0  0  0  0  0  0  0
    7.9010    0.1548   17.7758 N   0  0  0  0  0  0  0  0  0  0  0  0
   11.0210    0.3101   22.2612 N   0  0  0  0  0  0  0  0  0  0  0  0
    7.9941    1.0807   22.5760 N   0  0  0  0  0  0  0  0  0  0  0  0
    6.8608    2.6926   23.8716 O   0  0  0  0  0  0  0  0  0  0  0  0
    9.6749   -1.3632   21.3133 O   0  0  0  0  0  0  0  0  0  0  0  0
   15.3330   -2.3558   23.7759 H   0  0  0  0  0  0  0  0  0  0  0  0
    4.8114    0.0693   19.1702 H   0  0  0  0  0  0  0  0  0  0  0  0
   14.6705   -2.3376   21.3941 H   0  0  0  0  0  0  0  0  0  0  0  0
   13.9896   -1.1339   25.4524 H   0  0  0  0  0  0  0  0  0  0  0  0
    6.1395    0.5808   21.2087 H   0  0  0  0  0  0  0  0  0  0  0  0
    7.1423   -0.8851   26.6050 H   0  0  0  0  0  0  0  0  0  0  0  0
    7.1420   -3.3727   23.0880 H   0  0  0  0  0  0  0  0  0  0  0  0
    7.6625    1.0815   25.2158 H   0  0  0  0  0  0  0  0  0  0  0  0
    7.6651   -1.4079   21.6967 H   0  0  0  0  0  0  0  0  0  0  0  0
    6.0218   -0.1892   16.9982 H   0  0  0  0  0  0  0  0  0  0  0  0
    9.6693    0.5243   18.7611 H   0  0  0  0  0  0  0  0  0  0  0  0
    8.4981    5.5524   21.8048 H   0  0  0  0  0  0  0  0  0  0  0  0
    8.0860    4.9947   23.5245 H   0  0  0  0  0  0  0  0  0  0  0  0
    8.1222    3.3203   20.9367 H   0  0  0  0  0  0  0  0  0  0  0  0
   11.8876   -1.9414   20.0633 H   0  0  0  0  0  0  0  0  0  0  0  0
   12.0487   -0.1691   19.9968 H   0  0  0  0  0  0  0  0  0  0  0  0
   13.4429   -1.1858   19.6366 H   0  0  0  0  0  0  0  0  0  0  0  0
   10.2059   -1.1969   25.2341 H   0  0  0  0  0  0  0  0  0  0  0  0
   10.2838   -0.0588   26.5902 H   0  0  0  0  0  0  0  0  0  0  0  0
   11.5006   -1.3375   26.4338 H   0  0  0  0  0  0  0  0  0  0  0  0
    5.1824   -4.1231   27.1646 H   0  0  0  0  0  0  0  0  0  0  0  0
    5.4660   -2.3847   27.1942 H   0  0  0  0  0  0  0  0  0  0  0  0
    4.6200   -3.1124   25.8238 H   0  0  0  0  0  0  0  0  0  0  0  0
    7.7080   -4.5621   27.4916 H   0  0  0  0  0  0  0  0  0  0  0  0
    8.8662   -3.8655   26.3617 H   0  0  0  0  0  0  0  0  0  0  0  0
    8.0018   -2.8195   27.4993 H   0  0  0  0  0  0  0  0  0  0  0  0
    6.4163   -5.6437   25.6658 H   0  0  0  0  0  0  0  0  0  0  0  0
    5.8444   -4.7422   24.2622 H   0  0  0  0  0  0  0  0  0  0  0  0
    7.5796   -5.0484   24.4814 H   0  0  0  0  0  0  0  0  0  0  0  0
   12.4278    0.8734   25.7148 H   0  0  0  0  0  0  0  0  0  0  0  0
   11.1183    1.0748   24.5683 H   0  0  0  0  0  0  0  0  0  0  0  0
    9.4023    1.8492   21.2208 H   0  0  0  0  0  0  0  0  0  0  0  0
   11.0230    1.3108   22.4470 H   0  0  0  0  0  0  0  0  0  0  0  0
  1  3  1  0  0  0  0
  1  4  2  0  0  0  0
  2  5  2  0  0  0  0
  2 10  1  0  0  0  0
  3 14  2  0  0  0  0
  4 15  1  0  0  0  0
  5 13  1  0  0  0  0
  6  8  2  0  0  0  0
  6 12  1  0  0  0  0
  7  9  1  0  0  0  0
  7 12  2  0  0  0  0
  8 16  1  0  0  0  0
  9 16  2  0  0  0  0
 10 30  2  0  0  0  0
 11 13  2  0  0  0  0
 11 30  1  0  0  0  0
 12 29  1  0  0  0  0
 13 28  1  0  0  0  0
 14 17  1  0  0  0  0
 14 22  1  0  0  0  0
 15 17  2  0  0  0  0
 15 27  1  0  0  0  0
 16 32  1  0  0  0  0
 17 31  1  0  0  0  0
 18 19  2  0  0  0  0
 19 20  1  0  0  0  0
 20 32  1  0  0  0  0
 20 33  2  0  0  0  0
 21 28  1  0  0  0  0
 21 31  1  0  0  0  0
 21 34  2  0  0  0  0
 23 27  1  0  0  0  0
 24 29  1  0  0  0  0
 25 29  1  0  0  0  0
 26 29  1  0  0  0  0
 28 32  1  0  0  0  0
  1 35  1  0  0  0  0
  2 36  1  0  0  0  0
  3 37  1  0  0  0  0
  4 38  1  0  0  0  0
  5 39  1  0  0  0  0
  6 40  1  0  0  0  0
  7 41  1  0  0  0  0
  8 42  1  0  0  0  0
  9 43  1  0  0  0  0
 10 44  1  0  0  0  0
 11 45  1  0  0  0  0
 18 46  1  0  0  0  0
 18 47  1  0  0  0  0
 19 48  1  0  0  0  0
 22 49  1  0  0  0  0
 22 50  1  0  0  0  0
 22 51  1  0  0  0  0
 23 52  1  0  0  0  0
 23 53  1  0  0  0  0
 23 54  1  0  0  0  0
 24 55  1  0  0  0  0
 24 56  1  0  0  0  0
 24 57  1  0  0  0  0
 25 58  1  0  0  0  0
 25 59  1  0  0  0  0
 25 60  1  0  0  0  0
 26 61  1  0  0  0  0
 26 62  1  0  0  0  0
 26 63  1  0  0  0  0
 27 64  1  0  0  0  0
 27 65  1  0  0  0  0
 28 66  1  0  0  0  0
 31 67  1  0  0  0  0
M  END
> <series>
3-aminopyridine-like

> <r_inhibition_at_20_uM>
0.0

> <r_inhibition_at_50_uM>
0.0

> <r_IC50>

> <f_inhibition_at_20_uM>

> <f_inhibition_at_50_uM>
-3.744799

> <f_avg_IC50>

> <f_avg_pIC50>

> <ASSAYED>
True

> <Hybrid2>
-9.978846

> <docked_fragment>
x0678

> <Mpro-_dock>
-7.054375

> <site>
active-noncovalent

$$$$
CHR-SOS-363cfb78-1
  -OEChem-07042000473D

 27 28  0     0  0  0  0  0  0999 V2000
    4.4209    1.3433   19.3439 C   0  0  0  0  0  0  0  0  0  0  0  0
   13.4206   -2.1163   23.3580 C   0  0  0  0  0  0  0  0  0  0  0  0
   12.2552   -1.6057   22.7974 C   0  0  0  0  0  0  0  0  0  0  0  0
    6.6941    1.0252   20.2074 C   0  0  0  0  0  0  0  0  0  0  0  0
   14.2363   -1.2463   24.0633 C   0  0  0  0  0  0  0  0  0  0  0  0
    6.2324    0.4885   17.9369 C   0  0  0  0  0  0  0  0  0  0  0  0
   12.8270    0.5272   23.6805 C   0  0  0  0  0  0  0  0  0  0  0  0
    8.3647    0.1869   18.7370 C   0  0  0  0  0  0  0  0  0  0  0  0
    5.7805    0.9526   19.1617 C   0  0  0  0  0  0  0  0  0  0  0  0
   11.9454   -0.2597   22.9570 C   0  0  0  0  0  0  0  0  0  0  0  0
    8.0129    0.6370   19.9992 C   0  0  0  0  0  0  0  0  0  0  0  0
   10.0919   -0.1167   21.2357 C   0  0  0  0  0  0  0  0  0  0  0  0
    3.3147    1.6613   19.4921 N   0  0  0  0  0  0  0  0  0  0  0  0
   13.9686    0.0670   24.2396 N   0  0  0  0  0  0  0  0  0  0  0  0
    7.5055    0.1024   17.6967 N   0  0  0  0  0  0  0  0  0  0  0  0
   10.7670    0.2889   22.3981 N   0  0  0  0  0  0  0  0  0  0  0  0
    8.9509    0.6986   21.0270 N   0  0  0  0  0  0  0  0  0  0  0  0
   10.4326   -1.0398   20.5029 O   0  0  0  0  0  0  0  0  0  0  0  0
   13.6822   -3.1624   23.2463 H   0  0  0  0  0  0  0  0  0  0  0  0
   11.5961   -2.2649   22.2387 H   0  0  0  0  0  0  0  0  0  0  0  0
    6.3820    1.3840   21.1861 H   0  0  0  0  0  0  0  0  0  0  0  0
   15.1571   -1.5953   24.5191 H   0  0  0  0  0  0  0  0  0  0  0  0
    5.5690    0.4078   17.0804 H   0  0  0  0  0  0  0  0  0  0  0  0
   12.6396    1.5851   23.8394 H   0  0  0  0  0  0  0  0  0  0  0  0
    9.3789   -0.1306   18.5133 H   0  0  0  0  0  0  0  0  0  0  0  0
   10.3588    1.0734   22.9000 H   0  0  0  0  0  0  0  0  0  0  0  0
    8.8104    1.4279   21.7358 H   0  0  0  0  0  0  0  0  0  0  0  0
  1  9  1  0  0  0  0
  1 13  3  0  0  0  0
  2  3  2  0  0  0  0
  2  5  1  0  0  0  0
  3 10  1  0  0  0  0
  4  9  2  0  0  0  0
  4 11  1  0  0  0  0
  5 14  2  0  0  0  0
  6  9  1  0  0  0  0
  6 15  2  0  0  0  0
  7 10  2  0  0  0  0
  7 14  1  0  0  0  0
  8 11  2  0  0  0  0
  8 15  1  0  0  0  0
 10 16  1  0  0  0  0
 11 17  1  0  0  0  0
 12 16  1  0  0  0  0
 12 17  1  0  0  0  0
 12 18  2  0  0  0  0
  2 19  1  0  0  0  0
  3 20  1  0  0  0  0
  4 21  1  0  0  0  0
  5 22  1  0  0  0  0
  6 23  1  0  0  0  0
  7 24  1  0  0  0  0
  8 25  1  0  0  0  0
 16 26  1  0  0  0  0
 17 27  1  0  0  0  0
M  END
> <series>
3-aminopyridine-like

> <r_inhibition_at_20_uM>

> <r_inhibition_at_50_uM>
17.43921131066469

> <r_IC50>

> <f_inhibition_at_20_uM>
7.0689069999999985

> <f_inhibition_at_50_uM>
17.066025

> <f_avg_IC50>

> <f_avg_pIC50>

> <ASSAYED>
True

> <Hybrid2>
-9.977448

> <docked_fragment>
x0678

> <Mpro-_dock>
-4.634049

> <site>
active-noncovalent

$$$$
EDJ-MED-49816e9b-1
  -OEChem-07042000473D

 31 32  0     0  0  0  0  0  0999 V2000
   12.3694   -0.1252   24.3111 C   0  0  0  0  0  0  0  0  0  0  0  0
   11.1724   -0.4034   23.6514 C   0  0  0  0  0  0  0  0  0  0  0  0
   13.5857   -0.4840   23.7300 C   0  0  0  0  0  0  0  0  0  0  0  0
    5.9382    1.4701   18.9788 C   0  0  0  0  0  0  0  0  0  0  0  0
   12.4079   -1.3994   21.8296 C   0  0  0  0  0  0  0  0  0  0  0  0
    6.4369    1.1778   17.7196 C   0  0  0  0  0  0  0  0  0  0  0  0
    7.6825   -0.5778   18.5225 C   0  0  0  0  0  0  0  0  0  0  0  0
    6.3535    0.6780   20.0434 C   0  0  0  0  0  0  0  0  0  0  0  0
    7.2424   -0.3676   19.8194 C   0  0  0  0  0  0  0  0  0  0  0  0
   11.1916   -1.0405   22.4106 C   0  0  0  0  0  0  0  0  0  0  0  0
   13.6049   -1.1211   22.4893 C   0  0  0  0  0  0  0  0  0  0  0  0
    8.7833   -0.6080   21.8121 C   0  0  0  0  0  0  0  0  0  0  0  0
    5.8334    0.9665   21.4125 C   0  0  0  0  0  0  0  0  0  0  0  0
    7.7236   -1.2570   20.9357 C   0  0  0  0  0  0  0  0  0  0  0  0
    7.3015    0.1706   17.4631 N   0  0  0  0  0  0  0  0  0  0  0  0
    9.9935   -1.3191   21.7522 N   0  0  0  0  0  0  0  0  0  0  0  0
    8.5610    0.4040   22.4689 O   0  0  0  0  0  0  0  0  0  0  0  0
   15.1056   -1.5638   21.7723 Cl  0  0  0  0  0  0  0  0  0  0  0  0
   12.3544    0.3709   25.2773 H   0  0  0  0  0  0  0  0  0  0  0  0
   10.2304   -0.1192   24.1141 H   0  0  0  0  0  0  0  0  0  0  0  0
   14.5103   -0.2605   24.2559 H   0  0  0  0  0  0  0  0  0  0  0  0
    5.2462    2.2932   19.1207 H   0  0  0  0  0  0  0  0  0  0  0  0
   12.4191   -1.8957   20.8617 H   0  0  0  0  0  0  0  0  0  0  0  0
    6.1439    1.7656   16.8560 H   0  0  0  0  0  0  0  0  0  0  0  0
    8.3764   -1.3783   18.2850 H   0  0  0  0  0  0  0  0  0  0  0  0
    4.9109    0.4030   21.5958 H   0  0  0  0  0  0  0  0  0  0  0  0
    6.5672    0.6944   22.1816 H   0  0  0  0  0  0  0  0  0  0  0  0
    5.6206    2.0356   21.5393 H   0  0  0  0  0  0  0  0  0  0  0  0
    6.8744   -1.5472   21.5675 H   0  0  0  0  0  0  0  0  0  0  0  0
    8.1327   -2.1845   20.5154 H   0  0  0  0  0  0  0  0  0  0  0  0
    9.9966   -2.1488   21.1475 H   0  0  0  0  0  0  0  0  0  0  0  0
  1  2  2  0  0  0  0
  1  3  1  0  0  0  0
  2 10  1  0  0  0  0
  3 11  2  0  0  0  0
  4  6  2  0  0  0  0
  4  8  1  0  0  0  0
  5 10  2  0  0  0  0
  5 11  1  0  0  0  0
  6 15  1  0  0  0  0
  7  9  1  0  0  0  0
  7 15  2  0  0  0  0
  8  9  2  0  0  0  0
  8 13  1  0  0  0  0
  9 14  1  0  0  0  0
 10 16  1  0  0  0  0
 11 18  1  0  0  0  0
 12 14  1  0  0  0  0
 12 16  1  0  0  0  0
 12 17  2  0  0  0  0
  1 19  1  0  0  0  0
  2 20  1  0  0  0  0
  3 21  1  0  0  0  0
  4 22  1  0  0  0  0
  5 23  1  0  0  0  0
  6 24  1  0  0  0  0
  7 25  1  0  0  0  0
 13 26  1  0  0  0  0
 13 27  1  0  0  0  0
 13 28  1  0  0  0  0
 14 29  1  0  0  0  0
 14 30  1  0  0  0  0
 16 31  1  0  0  0  0
M  END
> <series>
3-aminopyridine-like

> <r_inhibition_at_20_uM>

> <r_inhibition_at_50_uM>
88.6064239800908

> <r_IC50>
26.362125750295405

> <f_inhibition_at_20_uM>
42.193095

> <f_inhibition_at_50_uM>
67.38705999999999

> <f_avg_IC50>
29.85959145183675

> <f_avg_pIC50>
4.524916138721734

> <ASSAYED>
True

> <Hybrid2>
-9.976429

> <docked_fragment>
x0678

> <Mpro-_dock>
-7.259044

> <site>
active-noncovalent

$$$$
LON-WEI-b8d98729-1
  -OEChem-07042000473D

 55 58  0     1  0  0  0  0  0999 V2000
    6.1094    0.9188   19.5257 C   0  0  0  0  0  0  0  0  0  0  0  0
    6.9204    0.4416   20.5493 C   0  0  0  0  0  0  0  0  0  0  0  0
   13.6081    0.6379   22.5776 C   0  0  0  0  0  0  0  0  0  0  0  0
   12.3362    0.9722   22.1039 C   0  0  0  0  0  0  0  0  0  0  0  0
    6.7779   -2.8300   24.4261 C   0  0  0  0  0  0  0  0  0  0  0  0
    6.0710   -3.6479   25.3074 C   0  0  0  0  0  0  0  0  0  0  0  0
    6.4072   -5.5301   23.8304 C   0  0  0  0  0  0  0  0  0  0  0  0
   11.4228   -1.0929   22.9869 C   0  0  0  0  0  0  0  0  0  0  0  0
    6.5927    0.8486   18.2290 C   0  0  0  0  0  0  0  0  0  0  0  0
    8.5632   -0.1094   18.9201 C   0  0  0  0  0  0  0  0  0  0  0  0
   14.8082   -2.2052   24.3662 C   0  0  0  0  0  0  0  0  0  0  0  0
    8.1723   -0.0839   20.2492 C   0  0  0  0  0  0  0  0  0  0  0  0
    7.1142   -4.7121   22.9490 C   0  0  0  0  0  0  0  0  0  0  0  0
   13.8012   -0.5783   23.2680 C   0  0  0  0  0  0  0  0  0  0  0  0
   11.2591    0.1166   22.3069 C   0  0  0  0  0  0  0  0  0  0  0  0
    7.2995   -3.3621   23.2468 C   0  0  0  0  0  0  0  0  0  0  0  0
    5.8856   -4.9980   25.0096 C   0  0  0  0  0  0  0  0  0  0  0  0
   12.7031   -1.4223   23.4602 C   0  0  0  0  0  0  0  0  0  0  0  0
    9.8296    2.6529   23.9913 C   0  0  0  0  0  0  0  0  0  0  0  0
   10.0692    2.8193   22.6867 C   0  0  0  0  0  0  0  0  0  0  0  0
    9.5528    1.8315   21.6943 C   0  0  0  0  0  0  0  0  0  0  0  0
    8.2770   -1.1571   22.5197 C   0  0  0  0  0  0  0  0  0  0  0  0
    7.6613   -5.3094   21.6934 C   0  0  0  0  0  0  0  0  0  0  0  0
    5.0440   -7.1667   25.5036 C   0  0  0  0  0  0  0  0  0  0  0  0
    9.0779   -0.6116   21.3400 C   0  0  2  0  0  0  0  0  0  0  0  0
    7.8030    0.3450   17.8987 N   0  0  0  0  0  0  0  0  0  0  0  0
   14.9995   -1.0402   23.7927 N   0  0  0  0  0  0  0  0  0  0  0  0
    8.0120   -2.5155   22.3646 N   0  0  0  0  0  0  0  0  0  0  0  0
    9.9967    0.4685   21.8259 N   0  0  0  0  0  0  0  0  0  0  0  0
    8.8008    2.2239   20.8018 O   0  0  0  0  0  0  0  0  0  0  0  0
    7.9298   -0.4365   23.4515 O   0  0  0  0  0  0  0  0  0  0  0  0
    5.1963   -5.7962   25.8700 O   0  0  0  0  0  0  0  0  0  0  0  0
   13.2142   -2.8244   24.3237 S   0  0  0  0  0  0  0  0  0  0  0  0
    5.1297    1.3325   19.7361 H   0  0  0  0  0  0  0  0  0  0  0  0
    6.5691    0.4829   21.5767 H   0  0  0  0  0  0  0  0  0  0  0  0
   14.4424    1.3143   22.4143 H   0  0  0  0  0  0  0  0  0  0  0  0
   12.2024    1.9122   21.5734 H   0  0  0  0  0  0  0  0  0  0  0  0
    6.9151   -1.7790   24.6683 H   0  0  0  0  0  0  0  0  0  0  0  0
    5.6675   -3.2276   26.2246 H   0  0  0  0  0  0  0  0  0  0  0  0
    6.2606   -6.5828   23.6009 H   0  0  0  0  0  0  0  0  0  0  0  0
   10.5829   -1.7633   23.1479 H   0  0  0  0  0  0  0  0  0  0  0  0
    5.9985    1.2080   17.3953 H   0  0  0  0  0  0  0  0  0  0  0  0
    9.5290   -0.5078   18.6252 H   0  0  0  0  0  0  0  0  0  0  0  0
   15.6127   -2.7489   24.8421 H   0  0  0  0  0  0  0  0  0  0  0  0
   10.1873    3.3861   24.7066 H   0  0  0  0  0  0  0  0  0  0  0  0
    9.2879    1.7978   24.3803 H   0  0  0  0  0  0  0  0  0  0  0  0
   10.6009    3.6971   22.3381 H   0  0  0  0  0  0  0  0  0  0  0  0
    6.9253   -5.2327   20.8850 H   0  0  0  0  0  0  0  0  0  0  0  0
    8.5801   -4.7990   21.3802 H   0  0  0  0  0  0  0  0  0  0  0  0
    7.9156   -6.3667   21.8364 H   0  0  0  0  0  0  0  0  0  0  0  0
    4.4754   -7.6901   26.2762 H   0  0  0  0  0  0  0  0  0  0  0  0
    6.0292   -7.6253   25.3875 H   0  0  0  0  0  0  0  0  0  0  0  0
    4.5039   -7.2233   24.5556 H   0  0  0  0  0  0  0  0  0  0  0  0
    9.7107   -1.4172   20.9478 H   0  0  0  0  0  0  0  0  0  0  0  0
    8.3728   -2.9501   21.5180 H   0  0  0  0  0  0  0  0  0  0  0  0
  1  2  2  0  0  0  0
  1  9  1  0  0  0  0
  2 12  1  0  0  0  0
  3  4  2  0  0  0  0
  3 14  1  0  0  0  0
  4 15  1  0  0  0  0
  5  6  2  0  0  0  0
  5 16  1  0  0  0  0
  6 17  1  0  0  0  0
  7 13  1  0  0  0  0
  7 17  2  0  0  0  0
  8 15  2  0  0  0  0
  8 18  1  0  0  0  0
  9 26  2  0  0  0  0
 10 12  2  0  0  0  0
 10 26  1  0  0  0  0
 11 27  2  0  0  0  0
 11 33  1  0  0  0  0
 12 25  1  0  0  0  0
 13 16  2  0  0  0  0
 13 23  1  0  0  0  0
 14 18  2  0  0  0  0
 14 27  1  0  0  0  0
 15 29  1  0  0  0  0
 16 28  1  0  0  0  0
 17 32  1  0  0  0  0
 18 33  1  0  0  0  0
 19 20  2  0  0  0  0
 20 21  1  0  0  0  0
 21 29  1  0  0  0  0
 21 30  2  0  0  0  0
 22 25  1  0  0  0  0
 22 28  1  0  0  0  0
 22 31  2  0  0  0  0
 24 32  1  0  0  0  0
 25 29  1  0  0  0  0
  1 34  1  0  0  0  0
  2 35  1  0  0  0  0
  3 36  1  0  0  0  0
  4 37  1  0  0  0  0
  5 38  1  0  0  0  0
  6 39  1  0  0  0  0
  7 40  1  0  0  0  0
  8 41  1  0  0  0  0
  9 42  1  0  0  0  0
 10 43  1  0  0  0  0
 11 44  1  0  0  0  0
 19 45  1  0  0  0  0
 19 46  1  0  0  0  0
 20 47  1  0  0  0  0
 23 48  1  0  0  0  0
 23 49  1  0  0  0  0
 23 50  1  0  0  0  0
 24 51  1  0  0  0  0
 24 52  1  0  0  0  0
 24 53  1  0  0  0  0
 25 54  1  0  0  0  0
 28 55  1  0  0  0  0
M  END
> <series>
3-aminopyridine-like

> <r_inhibition_at_20_uM>
0.0

> <r_inhibition_at_50_uM>

> <r_IC50>

> <f_inhibition_at_20_uM>
3.2135925000000003

> <f_inhibition_at_50_uM>
11.321835

> <f_avg_IC50>

> <f_avg_pIC50>

> <ASSAYED>
True

> <Hybrid2>
-9.965006

> <docked_fragment>
x0678

> <Mpro-_dock>
-6.705248

> <site>
active-noncovalent

$$$$
BAR-COM-4e090d3a-3
  -OEChem-07042000473D

 47 49  0     1  0  0  0  0  0999 V2000
   14.3219   -2.0217   22.5867 C   0  0  0  0  0  0  0  0  0  0  0  0
   14.3629   -1.8628   23.9718 C   0  0  0  0  0  0  0  0  0  0  0  0
    7.5746    3.3635   25.7215 C   0  0  0  0  0  0  0  0  0  0  0  0
    8.8436    3.3386   26.2998 C   0  0  0  0  0  0  0  0  0  0  0  0
    4.9793    1.4022   18.1941 C   0  0  0  0  0  0  0  0  0  0  0  0
   13.4952   -1.2050   21.8151 C   0  0  0  0  0  0  0  0  0  0  0  0
   13.5772   -0.8873   24.5855 C   0  0  0  0  0  0  0  0  0  0  0  0
    5.3388    0.9951   19.4741 C   0  0  0  0  0  0  0  0  0  0  0  0
    7.2804    2.5218   24.6487 C   0  0  0  0  0  0  0  0  0  0  0  0
    9.8185    2.4722   25.8054 C   0  0  0  0  0  0  0  0  0  0  0  0
    5.8614    1.1395   17.1584 C   0  0  0  0  0  0  0  0  0  0  0  0
    7.3637    0.1313   18.5743 C   0  0  0  0  0  0  0  0  0  0  0  0
    6.5521    0.3469   19.6764 C   0  0  0  0  0  0  0  0  0  0  0  0
   12.7094   -0.2295   22.4288 C   0  0  0  0  0  0  0  0  0  0  0  0
   12.7504   -0.0706   23.8140 C   0  0  0  0  0  0  0  0  0  0  0  0
    8.2553    1.6554   24.1543 C   0  0  0  0  0  0  0  0  0  0  0  0
    9.5244    1.6305   24.7326 C   0  0  0  0  0  0  0  0  0  0  0  0
    7.0283    1.0587   22.0382 C   0  0  0  0  0  0  0  0  0  0  0  0
   11.8327    0.6343   21.5826 C   0  0  0  0  0  0  0  0  0  0  0  0
   11.9176    0.9665   24.4935 C   0  0  0  0  0  0  0  0  0  0  0  0
    6.9712   -0.1083   21.0550 C   0  0  1  0  0  0  0  0  0  0  0  0
    7.0486    0.5123   17.3160 N   0  0  0  0  0  0  0  0  0  0  0  0
    7.9376    0.8211   23.0785 N   0  0  0  0  0  0  0  0  0  0  0  0
   10.5099    0.7777   24.2558 N   0  0  0  0  0  0  0  0  0  0  0  0
    6.3250    2.0537   21.8885 O   0  0  0  0  0  0  0  0  0  0  0  0
    6.0409   -1.0757   21.5191 O   0  0  0  0  0  0  0  0  0  0  0  0
   14.9332   -2.7817   22.1094 H   0  0  0  0  0  0  0  0  0  0  0  0
   15.0067   -2.4993   24.5720 H   0  0  0  0  0  0  0  0  0  0  0  0
    6.8159    4.0385   26.1066 H   0  0  0  0  0  0  0  0  0  0  0  0
    9.0721    3.9939   27.1352 H   0  0  0  0  0  0  0  0  0  0  0  0
    4.0383    1.9088   18.0129 H   0  0  0  0  0  0  0  0  0  0  0  0
   13.4692   -1.3379   20.7368 H   0  0  0  0  0  0  0  0  0  0  0  0
   13.6164   -0.7708   25.6654 H   0  0  0  0  0  0  0  0  0  0  0  0
    4.6678    1.1868   20.3071 H   0  0  0  0  0  0  0  0  0  0  0  0
    6.2875    2.5508   24.2069 H   0  0  0  0  0  0  0  0  0  0  0  0
   10.8040    2.4614   26.2643 H   0  0  0  0  0  0  0  0  0  0  0  0
    5.6274    1.4372   16.1415 H   0  0  0  0  0  0  0  0  0  0  0  0
    8.3221   -0.3696   18.6706 H   0  0  0  0  0  0  0  0  0  0  0  0
   10.8443    0.1746   21.4671 H   0  0  0  0  0  0  0  0  0  0  0  0
   11.7060    1.6283   22.0289 H   0  0  0  0  0  0  0  0  0  0  0  0
   12.2671    0.7844   20.5865 H   0  0  0  0  0  0  0  0  0  0  0  0
   12.0757    0.9487   25.5802 H   0  0  0  0  0  0  0  0  0  0  0  0
   12.1766    1.9767   24.1502 H   0  0  0  0  0  0  0  0  0  0  0  0
    7.9523   -0.5970   21.0183 H   0  0  0  0  0  0  0  0  0  0  0  0
    8.4326   -0.0759   23.0425 H   0  0  0  0  0  0  0  0  0  0  0  0
   10.2182   -0.0252   23.7063 H   0  0  0  0  0  0  0  0  0  0  0  0
    5.1723   -0.6419   21.5432 H   0  0  0  0  0  0  0  0  0  0  0  0
  1  2  1  0  0  0  0
  1  6  2  0  0  0  0
  2  7  2  0  0  0  0
  3  4  1  0  0  0  0
  3  9  2  0  0  0  0
  4 10  2  0  0  0  0
  5  8  2  0  0  0  0
  5 11  1  0  0  0  0
  6 14  1  0  0  0  0
  7 15  1  0  0  0  0
  8 13  1  0  0  0  0
  9 16  1  0  0  0  0
 10 17  1  0  0  0  0
 11 22  2  0  0  0  0
 12 13  2  0  0  0  0
 12 22  1  0  0  0  0
 13 21  1  0  0  0  0
 14 15  2  0  0  0  0
 14 19  1  0  0  0  0
 15 20  1  0  0  0  0
 16 17  2  0  0  0  0
 16 23  1  0  0  0  0
 17 24  1  0  0  0  0
 18 21  1  0  0  0  0
 18 23  1  0  0  0  0
 18 25  2  0  0  0  0
 20 24  1  0  0  0  0
 21 26  1  0  0  0  0
  1 27  1  0  0  0  0
  2 28  1  0  0  0  0
  3 29  1  0  0  0  0
  4 30  1  0  0  0  0
  5 31  1  0  0  0  0
  6 32  1  0  0  0  0
  7 33  1  0  0  0  0
  8 34  1  0  0  0  0
  9 35  1  0  0  0  0
 10 36  1  0  0  0  0
 11 37  1  0  0  0  0
 12 38  1  0  0  0  0
 19 39  1  0  0  0  0
 19 40  1  0  0  0  0
 19 41  1  0  0  0  0
 20 42  1  0  0  0  0
 20 43  1  0  0  0  0
 21 44  1  0  0  0  0
 23 45  1  0  0  0  0
 24 46  1  0  0  0  0
 26 47  1  0  0  0  0
M  END
> <series>
3-aminopyridine-like

> <r_inhibition_at_20_uM>
4.5875

> <r_inhibition_at_50_uM>
35.735

> <r_IC50>

> <f_inhibition_at_20_uM>
-0.056002549999999984

> <f_inhibition_at_50_uM>
7.280471500000001

> <f_avg_IC50>

> <f_avg_pIC50>

> <ASSAYED>
True

> <Hybrid2>
-9.960861

> <docked_fragment>
x0678

> <Mpro-_dock>
-7.792721

> <site>
active-noncovalent

$$$$
LON-WEI-b8d98729-21
  -OEChem-07042000473D

 55 57  0     1  0  0  0  0  0999 V2000
    5.5400    0.0134   19.2386 C   0  0  0  0  0  0  0  0  0  0  0  0
    6.3548    0.4438   20.2798 C   0  0  0  0  0  0  0  0  0  0  0  0
   12.4434    0.5271   24.0011 C   0  0  0  0  0  0  0  0  0  0  0  0
   12.1496   -1.2604   22.4025 C   0  0  0  0  0  0  0  0  0  0  0  0
   13.5774   -0.1099   24.5050 C   0  0  0  0  0  0  0  0  0  0  0  0
   13.2837   -1.8974   22.9063 C   0  0  0  0  0  0  0  0  0  0  0  0
    8.1088   -1.0071   23.2465 C   0  0  0  0  0  0  0  0  0  0  0  0
    6.1175   -0.1557   17.9905 C   0  0  0  0  0  0  0  0  0  0  0  0
    8.1839    0.4889   18.7603 C   0  0  0  0  0  0  0  0  0  0  0  0
    7.7032    0.6885   20.0444 C   0  0  0  0  0  0  0  0  0  0  0  0
   11.7295   -0.0482   22.9499 C   0  0  0  0  0  0  0  0  0  0  0  0
   13.9976   -1.3221   23.9575 C   0  0  0  0  0  0  0  0  0  0  0  0
    7.6773   -1.5731   24.4611 C   0  0  0  0  0  0  0  0  0  0  0  0
    7.7024    0.3031   23.3147 C   0  0  0  0  0  0  0  0  0  0  0  0
    8.2825    4.8334   21.9573 C   0  0  0  0  0  0  0  0  0  0  0  0
    7.5873    3.7343   21.6478 C   0  0  0  0  0  0  0  0  0  0  0  0
    7.3327    2.6885   22.6816 C   0  0  0  0  0  0  0  0  0  0  0  0
    9.7544    0.1698   21.4014 C   0  0  0  0  0  0  0  0  0  0  0  0
    8.6130   -3.8326   23.8569 C   0  0  0  0  0  0  0  0  0  0  0  0
    6.4759   -3.6687   25.1768 C   0  0  0  0  0  0  0  0  0  0  0  0
    8.6599   -3.1580   26.2495 C   0  0  0  0  0  0  0  0  0  0  0  0
    8.6159    1.1568   21.1561 C   0  0  2  0  0  0  0  0  0  0  0  0
    7.8583   -3.0247   24.9348 C   0  0  0  0  0  0  0  0  0  0  0  0
    7.4231    0.0718   17.7235 N   0  0  0  0  0  0  0  0  0  0  0  0
    7.0454   -0.6944   25.2438 N   0  0  0  0  0  0  0  0  0  0  0  0
    7.0769    0.4371   24.5193 N   0  0  0  0  0  0  0  0  0  0  0  0
   10.5792    0.5983   22.4385 N   0  0  0  0  0  0  0  0  0  0  0  0
    7.8342    1.3432   22.4389 N   0  0  0  0  0  0  0  0  0  0  0  0
    6.6811    2.9887   23.6823 O   0  0  0  0  0  0  0  0  0  0  0  0
    9.8803   -0.8495   20.7280 O   0  0  0  0  0  0  0  0  0  0  0  0
   15.3970   -2.1080   24.5793 Cl  0  0  0  0  0  0  0  0  0  0  0  0
    4.4862   -0.1837   19.3989 H   0  0  0  0  0  0  0  0  0  0  0  0
    5.9311    0.5855   21.2702 H   0  0  0  0  0  0  0  0  0  0  0  0
   12.1247    1.4711   24.4353 H   0  0  0  0  0  0  0  0  0  0  0  0
   11.6008   -1.7175   21.5831 H   0  0  0  0  0  0  0  0  0  0  0  0
   14.1242    0.3497   25.3242 H   0  0  0  0  0  0  0  0  0  0  0  0
   13.5997   -2.8416   22.4703 H   0  0  0  0  0  0  0  0  0  0  0  0
    8.6402   -1.4833   22.4348 H   0  0  0  0  0  0  0  0  0  0  0  0
    5.5243   -0.4894   17.1454 H   0  0  0  0  0  0  0  0  0  0  0  0
    9.2273    0.6635   18.5166 H   0  0  0  0  0  0  0  0  0  0  0  0
    8.4450    5.6014   21.2084 H   0  0  0  0  0  0  0  0  0  0  0  0
    8.7077    4.9966   22.9414 H   0  0  0  0  0  0  0  0  0  0  0  0
    7.1653    3.6178   20.6563 H   0  0  0  0  0  0  0  0  0  0  0  0
    8.7556   -4.8733   24.1704 H   0  0  0  0  0  0  0  0  0  0  0  0
    8.0739   -3.8567   22.9035 H   0  0  0  0  0  0  0  0  0  0  0  0
    9.6035   -3.4036   23.6639 H   0  0  0  0  0  0  0  0  0  0  0  0
    6.5560   -4.7070   25.5167 H   0  0  0  0  0  0  0  0  0  0  0  0
    5.9145   -3.1230   25.9442 H   0  0  0  0  0  0  0  0  0  0  0  0
    5.8746   -3.6681   24.2599 H   0  0  0  0  0  0  0  0  0  0  0  0
    8.7618   -4.2091   26.5453 H   0  0  0  0  0  0  0  0  0  0  0  0
    9.6735   -2.7530   26.1471 H   0  0  0  0  0  0  0  0  0  0  0  0
    8.1659   -2.6371   27.0779 H   0  0  0  0  0  0  0  0  0  0  0  0
    9.0502    2.1316   20.9020 H   0  0  0  0  0  0  0  0  0  0  0  0
    6.6508    1.2686   24.9089 H   0  0  0  0  0  0  0  0  0  0  0  0
   10.3250    1.4794   22.8802 H   0  0  0  0  0  0  0  0  0  0  0  0
  1  2  2  0  0  0  0
  1  8  1  0  0  0  0
  2 10  1  0  0  0  0
  3  5  2  0  0  0  0
  3 11  1  0  0  0  0
  4  6  1  0  0  0  0
  4 11  2  0  0  0  0
  5 12  1  0  0  0  0
  6 12  2  0  0  0  0
  7 13  1  0  0  0  0
  7 14  2  0  0  0  0
  8 24  2  0  0  0  0
  9 10  2  0  0  0  0
  9 24  1  0  0  0  0
 10 22  1  0  0  0  0
 11 27  1  0  0  0  0
 12 31  1  0  0  0  0
 13 23  1  0  0  0  0
 13 25  2  0  0  0  0
 14 26  1  0  0  0  0
 14 28  1  0  0  0  0
 15 16  2  0  0  0  0
 16 17  1  0  0  0  0
 17 28  1  0  0  0  0
 17 29  2  0  0  0  0
 18 22  1  0  0  0  0
 18 27  1  0  0  0  0
 18 30  2  0  0  0  0
 19 23  1  0  0  0  0
 20 23  1  0  0  0  0
 21 23  1  0  0  0  0
 22 28  1  0  0  0  0
 25 26  1  0  0  0  0
  1 32  1  0  0  0  0
  2 33  1  0  0  0  0
  3 34  1  0  0  0  0
  4 35  1  0  0  0  0
  5 36  1  0  0  0  0
  6 37  1  0  0  0  0
  7 38  1  0  0  0  0
  8 39  1  0  0  0  0
  9 40  1  0  0  0  0
 15 41  1  0  0  0  0
 15 42  1  0  0  0  0
 16 43  1  0  0  0  0
 19 44  1  0  0  0  0
 19 45  1  0  0  0  0
 19 46  1  0  0  0  0
 20 47  1  0  0  0  0
 20 48  1  0  0  0  0
 20 49  1  0  0  0  0
 21 50  1  0  0  0  0
 21 51  1  0  0  0  0
 21 52  1  0  0  0  0
 22 53  1  0  0  0  0
 26 54  1  0  0  0  0
 27 55  1  0  0  0  0
M  END
> <series>
3-aminopyridine-like

> <r_inhibition_at_20_uM>
0.0

> <r_inhibition_at_50_uM>

> <r_IC50>

> <f_inhibition_at_20_uM>
6.1170335

> <f_inhibition_at_50_uM>
19.534229999999997

> <f_avg_IC50>

> <f_avg_pIC50>

> <ASSAYED>
True

> <Hybrid2>
-9.953737

> <docked_fragment>
x0678

> <Mpro-_dock>
-5.751567

> <site>
active-noncovalent

$$$$
JAN-GHE-5a013bed-2
  -OEChem-07042000473D

 32 34  0     0  0  0  0  0  0999 V2000
    4.9615    1.4691   19.2708 C   0  0  0  0  0  0  0  0  0  0  0  0
    5.1083    1.3710   20.6564 C   0  0  0  0  0  0  0  0  0  0  0  0
   13.3467   -0.4077   24.4824 C   0  0  0  0  0  0  0  0  0  0  0  0
   11.9832   -0.6500   24.6487 C   0  0  0  0  0  0  0  0  0  0  0  0
    5.9797    1.0486   18.4059 C   0  0  0  0  0  0  0  0  0  0  0  0
    6.2743    0.8507   21.2278 C   0  0  0  0  0  0  0  0  0  0  0  0
   13.9938   -0.8305   23.3212 C   0  0  0  0  0  0  0  0  0  0  0  0
   11.9137   -1.7380   22.4926 C   0  0  0  0  0  0  0  0  0  0  0  0
    9.0848   -0.3220   19.3269 C   0  0  0  0  0  0  0  0  0  0  0  0
   11.2667   -1.3152   23.6538 C   0  0  0  0  0  0  0  0  0  0  0  0
    7.1581    0.5235   18.9628 C   0  0  0  0  0  0  0  0  0  0  0  0
    7.2749    0.4383   20.3473 C   0  0  0  0  0  0  0  0  0  0  0  0
   13.2772   -1.4957   22.3264 C   0  0  0  0  0  0  0  0  0  0  0  0
    9.0228   -1.6169   22.5264 C   0  0  0  0  0  0  0  0  0  0  0  0
    9.7945   -1.5776   23.8346 C   0  0  0  0  0  0  0  0  0  0  0  0
    8.2918    0.0465   18.3459 N   0  0  0  0  0  0  0  0  0  0  0  0
    8.5169   -0.1059   20.5517 N   0  0  0  0  0  0  0  0  0  0  0  0
    9.0857   -0.3821   21.7377 N   0  0  0  0  0  0  0  0  0  0  0  0
    8.4009   -2.6071   22.1584 O   0  0  0  0  0  0  0  0  0  0  0  0
   14.0763   -2.0181   20.8945 Cl  0  0  0  0  0  0  0  0  0  0  0  0
    4.0435    1.8774   18.8564 H   0  0  0  0  0  0  0  0  0  0  0  0
    4.3002    1.7035   21.3036 H   0  0  0  0  0  0  0  0  0  0  0  0
   13.9044    0.1102   25.2574 H   0  0  0  0  0  0  0  0  0  0  0  0
   11.4873   -0.3170   25.5567 H   0  0  0  0  0  0  0  0  0  0  0  0
    5.8557    1.1281   17.3307 H   0  0  0  0  0  0  0  0  0  0  0  0
    6.3870    0.7750   22.3035 H   0  0  0  0  0  0  0  0  0  0  0  0
   15.0570   -0.6350   23.2054 H   0  0  0  0  0  0  0  0  0  0  0  0
   11.3505   -2.2558   21.7197 H   0  0  0  0  0  0  0  0  0  0  0  0
   10.0724   -0.7479   19.2113 H   0  0  0  0  0  0  0  0  0  0  0  0
    9.3558   -0.8019   24.4753 H   0  0  0  0  0  0  0  0  0  0  0  0
    9.6549   -2.5318   24.3587 H   0  0  0  0  0  0  0  0  0  0  0  0
    9.6698    0.4157   22.1697 H   0  0  0  0  0  0  0  0  0  0  0  0
  1  2  1  0  0  0  0
  1  5  2  0  0  0  0
  2  6  2  0  0  0  0
  3  4  2  0  0  0  0
  3  7  1  0  0  0  0
  4 10  1  0  0  0  0
  5 11  1  0  0  0  0
  6 12  1  0  0  0  0
  7 13  2  0  0  0  0
  8 10  2  0  0  0  0
  8 13  1  0  0  0  0
  9 16  2  0  0  0  0
  9 17  1  0  0  0  0
 10 15  1  0  0  0  0
 11 12  2  0  0  0  0
 11 16  1  0  0  0  0
 12 17  1  0  0  0  0
 13 20  1  0  0  0  0
 14 15  1  0  0  0  0
 14 18  1  0  0  0  0
 14 19  2  0  0  0  0
 17 18  1  0  0  0  0
  1 21  1  0  0  0  0
  2 22  1  0  0  0  0
  3 23  1  0  0  0  0
  4 24  1  0  0  0  0
  5 25  1  0  0  0  0
  6 26  1  0  0  0  0
  7 27  1  0  0  0  0
  8 28  1  0  0  0  0
  9 29  1  0  0  0  0
 15 30  1  0  0  0  0
 15 31  1  0  0  0  0
 18 32  1  0  0  0  0
M  END
> <series>
3-aminopyridine-like

> <r_inhibition_at_20_uM>

> <r_inhibition_at_50_uM>
45.278749688190686

> <r_IC50>

> <f_inhibition_at_20_uM>
74.18714

> <f_inhibition_at_50_uM>
87.70723000000002

> <f_avg_IC50>
8.303468024158425

> <f_avg_pIC50>
5.080740482421092

> <ASSAYED>
True

> <Hybrid2>
-9.921616

> <docked_fragment>
x0678

> <Mpro-_dock>
-6.513988

> <site>
active-noncovalent

$$$$
JAN-GHE-83b26c96-12
  -OEChem-07042000473D

 31 32  0     0  0  0  0  0  0999 V2000
   12.0206    0.3865   24.2772 C   0  0  0  0  0  0  0  0  0  0  0  0
   10.7750   -0.0528   23.8289 C   0  0  0  0  0  0  0  0  0  0  0  0
   13.1481   -0.4156   24.1006 C   0  0  0  0  0  0  0  0  0  0  0  0
    5.5259    1.2870   19.0209 C   0  0  0  0  0  0  0  0  0  0  0  0
   11.7842   -2.0964   23.0275 C   0  0  0  0  0  0  0  0  0  0  0  0
    6.1532    1.0234   17.8139 C   0  0  0  0  0  0  0  0  0  0  0  0
    7.7944   -0.2178   18.8355 C   0  0  0  0  0  0  0  0  0  0  0  0
   10.6567   -1.2943   23.2041 C   0  0  0  0  0  0  0  0  0  0  0  0
    6.0882    0.7556   20.1762 C   0  0  0  0  0  0  0  0  0  0  0  0
    7.2442   -0.0122   20.0904 C   0  0  0  0  0  0  0  0  0  0  0  0
   13.0298   -1.6571   23.4758 C   0  0  0  0  0  0  0  0  0  0  0  0
    9.0045   -1.3579   21.2885 C   0  0  0  0  0  0  0  0  0  0  0  0
    5.4330    1.0244   21.4912 C   0  0  0  0  0  0  0  0  0  0  0  0
    9.3246   -1.7635   22.7251 C   0  0  0  0  0  0  0  0  0  0  0  0
    7.2769    0.2821   17.6909 N   0  0  0  0  0  0  0  0  0  0  0  0
    7.8540   -0.5749   21.2369 N   0  0  0  0  0  0  0  0  0  0  0  0
    9.7069   -1.7093   20.3460 O   0  0  0  0  0  0  0  0  0  0  0  0
   14.5579   -2.7434   23.2369 Br  0  0  0  0  0  0  0  0  0  0  0  0
   12.1126    1.3532   24.7637 H   0  0  0  0  0  0  0  0  0  0  0  0
    9.9021    0.5789   23.9708 H   0  0  0  0  0  0  0  0  0  0  0  0
   14.1113   -0.0583   24.4557 H   0  0  0  0  0  0  0  0  0  0  0  0
    4.6250    1.8902   19.0536 H   0  0  0  0  0  0  0  0  0  0  0  0
   11.6843   -3.0633   22.5394 H   0  0  0  0  0  0  0  0  0  0  0  0
    5.7546    1.4150   16.8837 H   0  0  0  0  0  0  0  0  0  0  0  0
    8.6961   -0.8087   18.7037 H   0  0  0  0  0  0  0  0  0  0  0  0
    4.6948    0.2454   21.7140 H   0  0  0  0  0  0  0  0  0  0  0  0
    6.1701    1.0503   22.3032 H   0  0  0  0  0  0  0  0  0  0  0  0
    4.9255    1.9970   21.4895 H   0  0  0  0  0  0  0  0  0  0  0  0
    9.2587   -2.8620   22.7914 H   0  0  0  0  0  0  0  0  0  0  0  0
    8.5254   -1.3734   23.3767 H   0  0  0  0  0  0  0  0  0  0  0  0
    7.3987   -0.3853   22.1273 H   0  0  0  0  0  0  0  0  0  0  0  0
  1  2  2  0  0  0  0
  1  3  1  0  0  0  0
  2  8  1  0  0  0  0
  3 11  2  0  0  0  0
  4  6  2  0  0  0  0
  4  9  1  0  0  0  0
  5  8  2  0  0  0  0
  5 11  1  0  0  0  0
  6 15  1  0  0  0  0
  7 10  1  0  0  0  0
  7 15  2  0  0  0  0
  8 14  1  0  0  0  0
  9 10  2  0  0  0  0
  9 13  1  0  0  0  0
 10 16  1  0  0  0  0
 11 18  1  0  0  0  0
 12 14  1  0  0  0  0
 12 16  1  0  0  0  0
 12 17  2  0  0  0  0
  1 19  1  0  0  0  0
  2 20  1  0  0  0  0
  3 21  1  0  0  0  0
  4 22  1  0  0  0  0
  5 23  1  0  0  0  0
  6 24  1  0  0  0  0
  7 25  1  0  0  0  0
 13 26  1  0  0  0  0
 13 27  1  0  0  0  0
 13 28  1  0  0  0  0
 14 29  1  0  0  0  0
 14 30  1  0  0  0  0
 16 31  1  0  0  0  0
M  END
> <series>
3-aminopyridine-like

> <r_inhibition_at_20_uM>

> <r_inhibition_at_50_uM>
98.33861977942725

> <r_IC50>
15.942976151608336

> <f_inhibition_at_20_uM>
56.18509

> <f_inhibition_at_50_uM>
77.679955

> <f_avg_IC50>
20.59394407248417

> <f_avg_pIC50>
4.686260471017583

> <ASSAYED>
True

> <Hybrid2>
-9.889761

> <docked_fragment>
x0678

> <Mpro-_dock>
-6.430348

> <site>
active-noncovalent

$$$$
DAR-DIA-23aa0b97-19
  -OEChem-07042000473D

 35 37  0     0  0  0  0  0  0999 V2000
   14.6116   -2.2369   24.3228 C   0  0  0  0  0  0  0  0  0  0  0  0
    4.4048    2.3508   20.8584 C   0  0  0  0  0  0  0  0  0  0  0  0
    5.0124    1.6615   21.9053 C   0  0  0  0  0  0  0  0  0  0  0  0
   12.7217    0.9664   24.1705 C   0  0  0  0  0  0  0  0  0  0  0  0
   13.7174    0.0345   24.4632 C   0  0  0  0  0  0  0  0  0  0  0  0
    4.8279    2.1417   19.5460 C   0  0  0  0  0  0  0  0  0  0  0  0
    6.0460    0.7601   21.6445 C   0  0  0  0  0  0  0  0  0  0  0  0
   11.5993    0.5807   23.4375 C   0  0  0  0  0  0  0  0  0  0  0  0
   12.4684   -1.6687   23.2900 C   0  0  0  0  0  0  0  0  0  0  0  0
    6.3297    0.9895   17.9781 C   0  0  0  0  0  0  0  0  0  0  0  0
    7.8938   -0.5244   18.7106 C   0  0  0  0  0  0  0  0  0  0  0  0
   13.5908   -1.2830   24.0230 C   0  0  0  0  0  0  0  0  0  0  0  0
    5.8669    1.2370   19.2719 C   0  0  0  0  0  0  0  0  0  0  0  0
    6.4846    0.5373   20.3291 C   0  0  0  0  0  0  0  0  0  0  0  0
    7.5181   -0.3598   20.0351 C   0  0  0  0  0  0  0  0  0  0  0  0
   11.4727   -0.7368   22.9973 C   0  0  0  0  0  0  0  0  0  0  0  0
    9.2524   -0.3348   21.8776 C   0  0  0  0  0  0  0  0  0  0  0  0
    8.2326   -1.1462   21.0836 C   0  0  0  0  0  0  0  0  0  0  0  0
   15.4406   -3.0117   24.5663 N   0  0  0  0  0  0  0  0  0  0  0  0
    7.3261    0.1275   17.6737 N   0  0  0  0  0  0  0  0  0  0  0  0
   10.3331   -1.1279   22.2548 N   0  0  0  0  0  0  0  0  0  0  0  0
    9.0842    0.8559   22.1205 O   0  0  0  0  0  0  0  0  0  0  0  0
    3.6009    3.0514   21.0643 H   0  0  0  0  0  0  0  0  0  0  0  0
    4.6815    1.8254   22.9268 H   0  0  0  0  0  0  0  0  0  0  0  0
   12.8198    1.9921   24.5140 H   0  0  0  0  0  0  0  0  0  0  0  0
   14.5866    0.3508   25.0348 H   0  0  0  0  0  0  0  0  0  0  0  0
    4.3419    2.6883   18.7411 H   0  0  0  0  0  0  0  0  0  0  0  0
    6.4963    0.2409   22.4872 H   0  0  0  0  0  0  0  0  0  0  0  0
   10.8295    1.3155   23.2153 H   0  0  0  0  0  0  0  0  0  0  0  0
   12.3666   -2.6956   22.9445 H   0  0  0  0  0  0  0  0  0  0  0  0
    5.8976    1.4951   17.1187 H   0  0  0  0  0  0  0  0  0  0  0  0
    8.6897   -1.2090   18.4327 H   0  0  0  0  0  0  0  0  0  0  0  0
    7.5105   -1.5777   21.7956 H   0  0  0  0  0  0  0  0  0  0  0  0
    8.7557   -2.0019   20.6269 H   0  0  0  0  0  0  0  0  0  0  0  0
   10.2995   -2.1024   21.9625 H   0  0  0  0  0  0  0  0  0  0  0  0
  1 12  1  0  0  0  0
  1 19  3  0  0  0  0
  2  3  1  0  0  0  0
  2  6  2  0  0  0  0
  3  7  2  0  0  0  0
  4  5  2  0  0  0  0
  4  8  1  0  0  0  0
  5 12  1  0  0  0  0
  6 13  1  0  0  0  0
  7 14  1  0  0  0  0
  8 16  2  0  0  0  0
  9 12  2  0  0  0  0
  9 16  1  0  0  0  0
 10 13  2  0  0  0  0
 10 20  1  0  0  0  0
 11 15  1  0  0  0  0
 11 20  2  0  0  0  0
 13 14  1  0  0  0  0
 14 15  2  0  0  0  0
 15 18  1  0  0  0  0
 16 21  1  0  0  0  0
 17 18  1  0  0  0  0
 17 21  1  0  0  0  0
 17 22  2  0  0  0  0
  2 23  1  0  0  0  0
  3 24  1  0  0  0  0
  4 25  1  0  0  0  0
  5 26  1  0  0  0  0
  6 27  1  0  0  0  0
  7 28  1  0  0  0  0
  8 29  1  0  0  0  0
  9 30  1  0  0  0  0
 10 31  1  0  0  0  0
 11 32  1  0  0  0  0
 18 33  1  0  0  0  0
 18 34  1  0  0  0  0
 21 35  1  0  0  0  0
M  END
> <series>
3-aminopyridine-like

> <r_inhibition_at_20_uM>
68.21000000000001

> <r_inhibition_at_50_uM>
85.16

> <r_IC50>
14.64109075330777

> <f_inhibition_at_20_uM>
48.73152500000001

> <f_inhibition_at_50_uM>
73.019885

> <f_avg_IC50>
26.68012917803707

> <f_avg_pIC50>
4.573812072012878

> <ASSAYED>
True

> <Hybrid2>
-9.884763

> <docked_fragment>
x0678

> <Mpro-_dock>
-7.564874

> <site>
active-noncovalent

$$$$
LON-WEI-b8d98729-25
  -OEChem-07042000473D

 52 55  0     1  0  0  0  0  0999 V2000
    6.1273    0.5960   19.6518 C   0  0  0  0  0  0  0  0  0  0  0  0
    6.9419    0.0662   20.6463 C   0  0  0  0  0  0  0  0  0  0  0  0
   13.6331    0.1730   22.6699 C   0  0  0  0  0  0  0  0  0  0  0  0
   12.3591    0.5286   22.2175 C   0  0  0  0  0  0  0  0  0  0  0  0
    7.1687   -5.2073   22.7437 C   0  0  0  0  0  0  0  0  0  0  0  0
    6.8100   -3.4317   24.3424 C   0  0  0  0  0  0  0  0  0  0  0  0
    6.4709   -6.0902   23.5677 C   0  0  0  0  0  0  0  0  0  0  0  0
    6.1121   -4.3147   25.1664 C   0  0  0  0  0  0  0  0  0  0  0  0
   11.4540   -1.5847   22.9880 C   0  0  0  0  0  0  0  0  0  0  0  0
    6.6082    0.5984   18.3523 C   0  0  0  0  0  0  0  0  0  0  0  0
    8.5831   -0.3895   18.9864 C   0  0  0  0  0  0  0  0  0  0  0  0
   14.8457   -2.7597   24.2982 C   0  0  0  0  0  0  0  0  0  0  0  0
    8.1948   -0.4380   20.3156 C   0  0  0  0  0  0  0  0  0  0  0  0
   13.8313   -1.0785   23.2925 C   0  0  0  0  0  0  0  0  0  0  0  0
    7.3384   -3.8780   23.1311 C   0  0  0  0  0  0  0  0  0  0  0  0
   11.2851   -0.3404   22.3755 C   0  0  0  0  0  0  0  0  0  0  0  0
    5.9426   -5.6439   24.7791 C   0  0  0  0  0  0  0  0  0  0  0  0
   12.7363   -1.9353   23.4402 C   0  0  0  0  0  0  0  0  0  0  0  0
   10.2388    3.6335   22.6316 C   0  0  0  0  0  0  0  0  0  0  0  0
   10.0876    2.3337   22.9047 C   0  0  0  0  0  0  0  0  0  0  0  0
    9.5722    1.4000   21.8608 C   0  0  0  0  0  0  0  0  0  0  0  0
    8.3075   -1.6334   22.5238 C   0  0  0  0  0  0  0  0  0  0  0  0
    4.7481   -5.9827   26.8074 C   0  0  0  0  0  0  0  0  0  0  0  0
    9.1042   -1.0216   21.3743 C   0  0  2  0  0  0  0  0  0  0  0  0
    7.8194    0.1175   17.9927 N   0  0  0  0  0  0  0  0  0  0  0  0
   15.0321   -1.5645   23.7888 N   0  0  0  0  0  0  0  0  0  0  0  0
    8.0464   -2.9821   22.2952 N   0  0  0  0  0  0  0  0  0  0  0  0
   10.0207    0.0332   21.9168 N   0  0  0  0  0  0  0  0  0  0  0  0
    8.8172    1.8381   20.9924 O   0  0  0  0  0  0  0  0  0  0  0  0
    7.9599   -0.9659   23.4943 O   0  0  0  0  0  0  0  0  0  0  0  0
    5.2616   -6.5055   25.5832 O   0  0  0  0  0  0  0  0  0  0  0  0
   13.2535   -3.3808   24.2249 S   0  0  0  0  0  0  0  0  0  0  0  0
    5.1468    0.9944   19.8863 H   0  0  0  0  0  0  0  0  0  0  0  0
    6.5925    0.0502   21.6750 H   0  0  0  0  0  0  0  0  0  0  0  0
   14.4649    0.8600   22.5423 H   0  0  0  0  0  0  0  0  0  0  0  0
   12.2213    1.4957   21.7395 H   0  0  0  0  0  0  0  0  0  0  0  0
    7.5761   -5.5659   21.8018 H   0  0  0  0  0  0  0  0  0  0  0  0
    6.9361   -2.3981   24.6546 H   0  0  0  0  0  0  0  0  0  0  0  0
    6.3420   -7.1245   23.2605 H   0  0  0  0  0  0  0  0  0  0  0  0
    5.7029   -3.9611   26.1089 H   0  0  0  0  0  0  0  0  0  0  0  0
   10.6166   -2.2656   23.1136 H   0  0  0  0  0  0  0  0  0  0  0  0
    6.0112    1.0010   17.5406 H   0  0  0  0  0  0  0  0  0  0  0  0
    9.5496   -0.7681   18.6684 H   0  0  0  0  0  0  0  0  0  0  0  0
   15.6528   -3.3261   24.7421 H   0  0  0  0  0  0  0  0  0  0  0  0
   10.6357    4.3040   23.3866 H   0  0  0  0  0  0  0  0  0  0  0  0
    9.9722    4.0627   21.6721 H   0  0  0  0  0  0  0  0  0  0  0  0
   10.3817    1.9424   23.8717 H   0  0  0  0  0  0  0  0  0  0  0  0
    4.2274   -6.7740   27.3524 H   0  0  0  0  0  0  0  0  0  0  0  0
    4.0611   -5.1600   26.5937 H   0  0  0  0  0  0  0  0  0  0  0  0
    5.5793   -5.6129   27.4124 H   0  0  0  0  0  0  0  0  0  0  0  0
    9.7388   -1.8025   20.9374 H   0  0  0  0  0  0  0  0  0  0  0  0
    8.4069   -3.3686   21.4254 H   0  0  0  0  0  0  0  0  0  0  0  0
  1  2  2  0  0  0  0
  1 10  1  0  0  0  0
  2 13  1  0  0  0  0
  3  4  2  0  0  0  0
  3 14  1  0  0  0  0
  4 16  1  0  0  0  0
  5  7  2  0  0  0  0
  5 15  1  0  0  0  0
  6  8  1  0  0  0  0
  6 15  2  0  0  0  0
  7 17  1  0  0  0  0
  8 17  2  0  0  0  0
  9 16  2  0  0  0  0
  9 18  1  0  0  0  0
 10 25  2  0  0  0  0
 11 13  2  0  0  0  0
 11 25  1  0  0  0  0
 12 26  2  0  0  0  0
 12 32  1  0  0  0  0
 13 24  1  0  0  0  0
 14 18  2  0  0  0  0
 14 26  1  0  0  0  0
 15 27  1  0  0  0  0
 16 28  1  0  0  0  0
 17 31  1  0  0  0  0
 18 32  1  0  0  0  0
 19 20  2  0  0  0  0
 20 21  1  0  0  0  0
 21 28  1  0  0  0  0
 21 29  2  0  0  0  0
 22 24  1  0  0  0  0
 22 27  1  0  0  0  0
 22 30  2  0  0  0  0
 23 31  1  0  0  0  0
 24 28  1  0  0  0  0
  1 33  1  0  0  0  0
  2 34  1  0  0  0  0
  3 35  1  0  0  0  0
  4 36  1  0  0  0  0
  5 37  1  0  0  0  0
  6 38  1  0  0  0  0
  7 39  1  0  0  0  0
  8 40  1  0  0  0  0
  9 41  1  0  0  0  0
 10 42  1  0  0  0  0
 11 43  1  0  0  0  0
 12 44  1  0  0  0  0
 19 45  1  0  0  0  0
 19 46  1  0  0  0  0
 20 47  1  0  0  0  0
 23 48  1  0  0  0  0
 23 49  1  0  0  0  0
 23 50  1  0  0  0  0
 24 51  1  0  0  0  0
 27 52  1  0  0  0  0
M  END
> <series>
3-aminopyridine-like

> <r_inhibition_at_20_uM>
0.0

> <r_inhibition_at_50_uM>

> <r_IC50>

> <f_inhibition_at_20_uM>
4.018394

> <f_inhibition_at_50_uM>
15.369845000000002

> <f_avg_IC50>

> <f_avg_pIC50>

> <ASSAYED>
True

> <Hybrid2>
-9.877169

> <docked_fragment>
x0678

> <Mpro-_dock>
-7.122433

> <site>
active-noncovalent

$$$$
RAL-MED-2de63afb-1
  -OEChem-07042000473D

 37 39  0     1  0  0  0  0  0999 V2000
   13.7568   -1.7212   22.4122 C   0  0  0  0  0  0  0  0  0  0  0  0
    5.7603    1.1581   18.8905 C   0  0  0  0  0  0  0  0  0  0  0  0
    6.2717    0.5114   20.0101 C   0  0  0  0  0  0  0  0  0  0  0  0
   12.4673   -1.9972   21.9577 C   0  0  0  0  0  0  0  0  0  0  0  0
   14.0446   -0.4816   22.9835 C   0  0  0  0  0  0  0  0  0  0  0  0
   11.7533    0.2060   22.6456 C   0  0  0  0  0  0  0  0  0  0  0  0
    6.2679    0.8067   17.6501 C   0  0  0  0  0  0  0  0  0  0  0  0
    7.7015   -0.7329   18.5735 C   0  0  0  0  0  0  0  0  0  0  0  0
    7.2612   -0.4534   19.8572 C   0  0  0  0  0  0  0  0  0  0  0  0
   11.4656   -1.0336   22.0744 C   0  0  0  0  0  0  0  0  0  0  0  0
   13.0428    0.4820   23.1002 C   0  0  0  0  0  0  0  0  0  0  0  0
   12.7548    4.8156   23.4550 C   0  0  0  0  0  0  0  0  0  0  0  0
    9.0460   -0.4758   21.6509 C   0  0  0  0  0  0  0  0  0  0  0  0
   11.8240    3.6428   23.1070 C   0  0  0  0  0  0  0  0  0  0  0  0
   13.1199    2.8449   22.8425 C   0  0  1  0  0  0  0  0  0  0  0  0
    7.8351   -1.1722   21.0501 C   0  0  0  0  0  0  0  0  0  0  0  0
    7.2287   -0.1255   17.4621 N   0  0  0  0  0  0  0  0  0  0  0  0
   13.8509    4.0470   23.2244 N   0  0  0  0  0  0  0  0  0  0  0  0
   10.1757   -1.3102   21.6198 N   0  0  0  0  0  0  0  0  0  0  0  0
   12.6221    5.9670   23.7998 O   0  0  0  0  0  0  0  0  0  0  0  0
    8.9922    0.6670   22.0939 O   0  0  0  0  0  0  0  0  0  0  0  0
   13.3236    1.6917   23.6574 O   0  0  0  0  0  0  0  0  0  0  0  0
   14.5363   -2.4720   22.3220 H   0  0  0  0  0  0  0  0  0  0  0  0
    4.9885    1.9133   18.9858 H   0  0  0  0  0  0  0  0  0  0  0  0
    5.8936    0.7652   20.9967 H   0  0  0  0  0  0  0  0  0  0  0  0
   12.2547   -2.9664   21.5138 H   0  0  0  0  0  0  0  0  0  0  0  0
   15.0509   -0.2733   23.3361 H   0  0  0  0  0  0  0  0  0  0  0  0
   10.9754    0.9604   22.7392 H   0  0  0  0  0  0  0  0  0  0  0  0
    5.9022    1.2824   16.7461 H   0  0  0  0  0  0  0  0  0  0  0  0
    8.4716   -1.4763   18.3922 H   0  0  0  0  0  0  0  0  0  0  0  0
   11.2172    3.2993   23.9488 H   0  0  0  0  0  0  0  0  0  0  0  0
   11.1942    3.8157   22.2308 H   0  0  0  0  0  0  0  0  0  0  0  0
   13.2771    2.6037   21.7851 H   0  0  0  0  0  0  0  0  0  0  0  0
    7.0653   -1.2707   21.8261 H   0  0  0  0  0  0  0  0  0  0  0  0
    8.1212   -2.1916   20.7615 H   0  0  0  0  0  0  0  0  0  0  0  0
   14.8339    4.2744   23.2844 H   0  0  0  0  0  0  0  0  0  0  0  0
   10.0344   -2.2412   21.2110 H   0  0  0  0  0  0  0  0  0  0  0  0
  1  4  2  0  0  0  0
  1  5  1  0  0  0  0
  2  3  2  0  0  0  0
  2  7  1  0  0  0  0
  3  9  1  0  0  0  0
  4 10  1  0  0  0  0
  5 11  2  0  0  0  0
  6 10  2  0  0  0  0
  6 11  1  0  0  0  0
  7 17  2  0  0  0  0
  8  9  2  0  0  0  0
  8 17  1  0  0  0  0
  9 16  1  0  0  0  0
 10 19  1  0  0  0  0
 11 22  1  0  0  0  0
 12 14  1  0  0  0  0
 12 18  1  0  0  0  0
 12 20  2  0  0  0  0
 13 16  1  0  0  0  0
 13 19  1  0  0  0  0
 13 21  2  0  0  0  0
 14 15  1  0  0  0  0
 15 18  1  0  0  0  0
 15 22  1  0  0  0  0
  1 23  1  0  0  0  0
  2 24  1  0  0  0  0
  3 25  1  0  0  0  0
  4 26  1  0  0  0  0
  5 27  1  0  0  0  0
  6 28  1  0  0  0  0
  7 29  1  0  0  0  0
  8 30  1  0  0  0  0
 14 31  1  0  0  0  0
 14 32  1  0  0  0  0
 15 33  1  0  0  0  0
 16 34  1  0  0  0  0
 16 35  1  0  0  0  0
 18 36  1  0  0  0  0
 19 37  1  0  0  0  0
M  END
> <series>
3-aminopyridine-like

> <r_inhibition_at_20_uM>

> <r_inhibition_at_50_uM>
26.440201745

> <r_IC50>

> <f_inhibition_at_20_uM>
39.5682

> <f_inhibition_at_50_uM>
71.7735

> <f_avg_IC50>
88.3422842953824

> <f_avg_pIC50>
4.053831375237763

> <ASSAYED>
True

> <Hybrid2>
-9.860729

> <docked_fragment>
x0678

> <Mpro-_dock>
-6.581481

> <site>
active-noncovalent

$$$$
JAN-GHE-83b26c96-10
  -OEChem-07042000473D

 40 41  0     1  0  0  0  0  0999 V2000
   13.4100   -1.4588   21.7136 C   0  0  0  0  0  0  0  0  0  0  0  0
   12.6166   -0.3366   21.4754 C   0  0  0  0  0  0  0  0  0  0  0  0
   13.7035   -1.8402   23.0229 C   0  0  0  0  0  0  0  0  0  0  0  0
    5.9487    0.3544   19.5451 C   0  0  0  0  0  0  0  0  0  0  0  0
   12.4102    0.0229   23.8556 C   0  0  0  0  0  0  0  0  0  0  0  0
    6.4135    0.0702   18.2712 C   0  0  0  0  0  0  0  0  0  0  0  0
    8.6033    0.3320   18.9148 C   0  0  0  0  0  0  0  0  0  0  0  0
   12.1167    0.4042   22.5463 C   0  0  0  0  0  0  0  0  0  0  0  0
    6.8864    0.6379   20.5318 C   0  0  0  0  0  0  0  0  0  0  0  0
    8.2412    0.6286   20.2188 C   0  0  0  0  0  0  0  0  0  0  0  0
   13.2037   -1.0994   24.0938 C   0  0  0  0  0  0  0  0  0  0  0  0
   10.4823    1.4885   20.9799 C   0  0  0  0  0  0  0  0  0  0  0  0
    6.4132    0.9484   21.9140 C   0  0  0  0  0  0  0  0  0  0  0  0
   12.2686    3.4334   23.6646 C   0  0  0  0  0  0  0  0  0  0  0  0
   13.3377    2.7553   21.5203 C   0  0  0  0  0  0  0  0  0  0  0  0
   11.2574    1.6218   22.2871 C   0  0  2  0  0  0  0  0  0  0  0  0
    7.7213    0.0516   17.9293 N   0  0  0  0  0  0  0  0  0  0  0  0
    9.2335    0.9101   21.1876 N   0  0  0  0  0  0  0  0  0  0  0  0
   12.0488    2.8984   22.2783 N   0  3  0  0  0  0  0  0  0  0  0  0
   10.9626    1.8560   19.9111 O   0  0  0  0  0  0  0  0  0  0  0  0
   13.5671   -1.5698   25.7089 Cl  0  0  0  0  0  0  0  0  0  0  0  0
   13.7992   -2.0353   20.8794 H   0  0  0  0  0  0  0  0  0  0  0  0
   12.3931   -0.0467   20.4520 H   0  0  0  0  0  0  0  0  0  0  0  0
   14.3235   -2.7169   23.1936 H   0  0  0  0  0  0  0  0  0  0  0  0
    4.8848    0.3537   19.7565 H   0  0  0  0  0  0  0  0  0  0  0  0
   12.0177    0.6035   24.6871 H   0  0  0  0  0  0  0  0  0  0  0  0
    5.7227   -0.1573   17.4659 H   0  0  0  0  0  0  0  0  0  0  0  0
    9.6452    0.3087   18.6090 H   0  0  0  0  0  0  0  0  0  0  0  0
    6.3412    0.0289   22.5063 H   0  0  0  0  0  0  0  0  0  0  0  0
    7.0980    1.6387   22.4217 H   0  0  0  0  0  0  0  0  0  0  0  0
    5.4282    1.4311   21.8964 H   0  0  0  0  0  0  0  0  0  0  0  0
   12.8680    2.7042   24.2127 H   0  0  0  0  0  0  0  0  0  0  0  0
   12.7940    4.3861   23.5757 H   0  0  0  0  0  0  0  0  0  0  0  0
   11.2903    3.5666   24.1303 H   0  0  0  0  0  0  0  0  0  0  0  0
   13.9509    2.0173   22.0408 H   0  0  0  0  0  0  0  0  0  0  0  0
   13.0956    2.4220   20.5094 H   0  0  0  0  0  0  0  0  0  0  0  0
   13.8266    3.7313   21.5053 H   0  0  0  0  0  0  0  0  0  0  0  0
   10.5450    1.7622   23.1091 H   0  0  0  0  0  0  0  0  0  0  0  0
    9.0078    0.6605   22.1482 H   0  0  0  0  0  0  0  0  0  0  0  0
   11.4834    3.5961   21.7758 H   0  0  0  0  0  0  0  0  0  0  0  0
  1  2  2  0  0  0  0
  1  3  1  0  0  0  0
  2  8  1  0  0  0  0
  3 11  2  0  0  0  0
  4  6  2  0  0  0  0
  4  9  1  0  0  0  0
  5  8  2  0  0  0  0
  5 11  1  0  0  0  0
  6 17  1  0  0  0  0
  7 10  1  0  0  0  0
  7 17  2  0  0  0  0
  8 16  1  0  0  0  0
  9 10  2  0  0  0  0
  9 13  1  0  0  0  0
 10 18  1  0  0  0  0
 11 21  1  0  0  0  0
 12 16  1  0  0  0  0
 12 18  1  0  0  0  0
 12 20  2  0  0  0  0
 14 19  1  0  0  0  0
 15 19  1  0  0  0  0
 16 19  1  0  0  0  0
  1 22  1  0  0  0  0
  2 23  1  0  0  0  0
  3 24  1  0  0  0  0
  4 25  1  0  0  0  0
  5 26  1  0  0  0  0
  6 27  1  0  0  0  0
  7 28  1  0  0  0  0
 13 29  1  0  0  0  0
 13 30  1  0  0  0  0
 13 31  1  0  0  0  0
 14 32  1  0  0  0  0
 14 33  1  0  0  0  0
 14 34  1  0  0  0  0
 15 35  1  0  0  0  0
 15 36  1  0  0  0  0
 15 37  1  0  0  0  0
 16 38  1  0  0  0  0
 18 39  1  0  0  0  0
 19 40  1  0  0  0  0
M  CHG  1  19   1
M  END
> <series>
3-aminopyridine-like

> <r_inhibition_at_20_uM>

> <r_inhibition_at_50_uM>
16.76067445

> <r_IC50>

> <f_inhibition_at_20_uM>
16.217575

> <f_inhibition_at_50_uM>
38.98899

> <f_avg_IC50>

> <f_avg_pIC50>

> <ASSAYED>
True

> <Hybrid2>
-9.859742

> <docked_fragment>
x0678

> <Mpro-_dock>
-7.510205

> <site>
active-noncovalent

$$$$
JOR-UNI-2fc98d0b-6
  -OEChem-07042000473D

 47 49  0     0  0  0  0  0  0999 V2000
    7.6227    0.2669   26.1332 C   0  0  0  0  0  0  0  0  0  0  0  0
    5.5121    1.4628   18.5472 C   0  0  0  0  0  0  0  0  0  0  0  0
    7.9818   -0.6687   25.1630 C   0  0  0  0  0  0  0  0  0  0  0  0
    5.9232    1.0536   19.8108 C   0  0  0  0  0  0  0  0  0  0  0  0
    7.6896    1.6303   25.8460 C   0  0  0  0  0  0  0  0  0  0  0  0
    8.4748    1.1224   23.6183 C   0  0  0  0  0  0  0  0  0  0  0  0
    6.2660    1.0584   17.4573 C   0  0  0  0  0  0  0  0  0  0  0  0
    7.7441   -0.0874   18.7917 C   0  0  0  0  0  0  0  0  0  0  0  0
    8.4079   -0.2410   23.9056 C   0  0  0  0  0  0  0  0  0  0  0  0
    7.0596    0.2635   19.9441 C   0  0  0  0  0  0  0  0  0  0  0  0
    8.1157    2.0580   24.5886 C   0  0  0  0  0  0  0  0  0  0  0  0
    8.6199   -0.9613   21.5099 C   0  0  0  0  0  0  0  0  0  0  0  0
   12.4581   -2.3605   22.4594 C   0  0  0  0  0  0  0  0  0  0  0  0
   12.5836   -0.5318   24.1391 C   0  0  0  0  0  0  0  0  0  0  0  0
   13.3987   -1.5412   21.5921 C   0  0  0  0  0  0  0  0  0  0  0  0
   13.5182    0.1928   23.1852 C   0  0  0  0  0  0  0  0  0  0  0  0
    9.4279   -2.4580   23.3697 C   0  0  0  0  0  0  0  0  0  0  0  0
   10.6652   -2.1326   24.1850 C   0  0  0  0  0  0  0  0  0  0  0  0
    7.3754    0.2911   17.5473 N   0  0  0  0  0  0  0  0  0  0  0  0
    7.5031   -0.1685   21.2176 N   0  0  0  0  0  0  0  0  0  0  0  0
    8.7810   -1.2123   22.9006 N   0  0  0  0  0  0  0  0  0  0  0  0
   11.6636   -1.4116   23.3256 N   0  3  0  0  0  0  0  0  0  0  0  0
    9.3986   -1.3896   20.6566 O   0  0  0  0  0  0  0  0  0  0  0  0
   14.2618   -0.7437   22.4040 O   0  0  0  0  0  0  0  0  0  0  0  0
    8.1983    3.7401   24.2340 Cl  0  0  0  0  0  0  0  0  0  0  0  0
    7.2909   -0.0662   27.1124 H   0  0  0  0  0  0  0  0  0  0  0  0
    4.6293    2.0789   18.4196 H   0  0  0  0  0  0  0  0  0  0  0  0
    7.9257   -1.7286   25.3985 H   0  0  0  0  0  0  0  0  0  0  0  0
    5.3512    1.3557   20.6842 H   0  0  0  0  0  0  0  0  0  0  0  0
    7.4063    2.3475   26.6119 H   0  0  0  0  0  0  0  0  0  0  0  0
    8.8072    1.4524   22.6365 H   0  0  0  0  0  0  0  0  0  0  0  0
    5.9877    1.3518   16.4505 H   0  0  0  0  0  0  0  0  0  0  0  0
    8.6381   -0.7026   18.8313 H   0  0  0  0  0  0  0  0  0  0  0  0
   11.7503   -2.9321   21.8514 H   0  0  0  0  0  0  0  0  0  0  0  0
   13.0077   -3.0279   23.1322 H   0  0  0  0  0  0  0  0  0  0  0  0
   13.1332   -1.1873   24.8233 H   0  0  0  0  0  0  0  0  0  0  0  0
   11.9631    0.1717   24.7024 H   0  0  0  0  0  0  0  0  0  0  0  0
   14.0296   -2.2105   20.9986 H   0  0  0  0  0  0  0  0  0  0  0  0
   12.8510   -0.8991   20.8919 H   0  0  0  0  0  0  0  0  0  0  0  0
   12.9736    0.8770   22.5236 H   0  0  0  0  0  0  0  0  0  0  0  0
   14.2365    0.7898   23.7560 H   0  0  0  0  0  0  0  0  0  0  0  0
    9.6749   -3.0771   22.5009 H   0  0  0  0  0  0  0  0  0  0  0  0
    8.7071   -3.0064   23.9846 H   0  0  0  0  0  0  0  0  0  0  0  0
   11.1577   -3.0419   24.5409 H   0  0  0  0  0  0  0  0  0  0  0  0
   10.4454   -1.4770   25.0330 H   0  0  0  0  0  0  0  0  0  0  0  0
    6.9457    0.1318   22.0124 H   0  0  0  0  0  0  0  0  0  0  0  0
   11.1242   -0.7985   22.6987 H   0  0  0  0  0  0  0  0  0  0  0  0
  1  3  2  0  0  0  0
  1  5  1  0  0  0  0
  2  4  2  0  0  0  0
  2  7  1  0  0  0  0
  3  9  1  0  0  0  0
  4 10  1  0  0  0  0
  5 11  2  0  0  0  0
  6  9  2  0  0  0  0
  6 11  1  0  0  0  0
  7 19  2  0  0  0  0
  8 10  2  0  0  0  0
  8 19  1  0  0  0  0
  9 21  1  0  0  0  0
 10 20  1  0  0  0  0
 11 25  1  0  0  0  0
 12 20  1  0  0  0  0
 12 21  1  0  0  0  0
 12 23  2  0  0  0  0
 13 15  1  0  0  0  0
 13 22  1  0  0  0  0
 14 16  1  0  0  0  0
 14 22  1  0  0  0  0
 15 24  1  0  0  0  0
 16 24  1  0  0  0  0
 17 18  1  0  0  0  0
 17 21  1  0  0  0  0
 18 22  1  0  0  0  0
  1 26  1  0  0  0  0
  2 27  1  0  0  0  0
  3 28  1  0  0  0  0
  4 29  1  0  0  0  0
  5 30  1  0  0  0  0
  6 31  1  0  0  0  0
  7 32  1  0  0  0  0
  8 33  1  0  0  0  0
 13 34  1  0  0  0  0
 13 35  1  0  0  0  0
 14 36  1  0  0  0  0
 14 37  1  0  0  0  0
 15 38  1  0  0  0  0
 15 39  1  0  0  0  0
 16 40  1  0  0  0  0
 16 41  1  0  0  0  0
 17 42  1  0  0  0  0
 17 43  1  0  0  0  0
 18 44  1  0  0  0  0
 18 45  1  0  0  0  0
 20 46  1  0  0  0  0
 22 47  1  0  0  0  0
M  CHG  1  22   1
M  END
> <series>
3-aminopyridine-like

> <r_inhibition_at_20_uM>

> <r_inhibition_at_50_uM>
59.3594388636461

> <r_IC50>

> <f_inhibition_at_20_uM>
24.350455

> <f_inhibition_at_50_uM>
49.6179

> <f_avg_IC50>

> <f_avg_pIC50>

> <ASSAYED>
True

> <Hybrid2>
-9.857008

> <docked_fragment>
x0678

> <Mpro-_dock>
-7.843946

> <site>
active-noncovalent

$$$$
LON-WEI-b8d98729-33
  -OEChem-07042000473D

 61 63  0     1  0  0  0  0  0999 V2000
    5.9466    0.1134   19.1706 C   0  0  0  0  0  0  0  0  0  0  0  0
    6.7531    0.4044   20.2652 C   0  0  0  0  0  0  0  0  0  0  0  0
    7.9374   -1.3221   25.3663 C   0  0  0  0  0  0  0  0  0  0  0  0
    7.9197   -2.5809   23.3043 C   0  0  0  0  0  0  0  0  0  0  0  0
    8.0551   -0.1362   24.6414 C   0  0  0  0  0  0  0  0  0  0  0  0
    8.0374   -1.3950   22.5793 C   0  0  0  0  0  0  0  0  0  0  0  0
   12.8233    0.0264   23.9983 C   0  0  0  0  0  0  0  0  0  0  0  0
   12.5513   -1.5298   22.1703 C   0  0  0  0  0  0  0  0  0  0  0  0
   13.9600   -0.6648   24.4176 C   0  0  0  0  0  0  0  0  0  0  0  0
   13.6880   -2.2209   22.5896 C   0  0  0  0  0  0  0  0  0  0  0  0
    6.5313    0.1193   17.9144 C   0  0  0  0  0  0  0  0  0  0  0  0
    8.5888    0.6686   18.7764 C   0  0  0  0  0  0  0  0  0  0  0  0
    7.8697   -2.5444   24.6978 C   0  0  0  0  0  0  0  0  0  0  0  0
    8.1005    0.6885   20.0729 C   0  0  0  0  0  0  0  0  0  0  0  0
   12.1189   -0.4062   22.8747 C   0  0  0  0  0  0  0  0  0  0  0  0
    8.1051   -0.1727   23.2480 C   0  0  0  0  0  0  0  0  0  0  0  0
   14.3924   -1.7884   23.7132 C   0  0  0  0  0  0  0  0  0  0  0  0
    8.0521    4.6841   22.6694 C   0  0  0  0  0  0  0  0  0  0  0  0
    7.9448    3.4703   22.1198 C   0  0  0  0  0  0  0  0  0  0  0  0
    7.6973    2.2745   22.9777 C   0  0  0  0  0  0  0  0  0  0  0  0
   10.1494    0.0055   21.3588 C   0  0  0  0  0  0  0  0  0  0  0  0
    5.1460   -3.9339   25.2536 C   0  0  0  0  0  0  0  0  0  0  0  0
    7.6974   -3.6466   27.0313 C   0  0  0  0  0  0  0  0  0  0  0  0
    8.9870   -4.7265   25.2109 C   0  0  0  0  0  0  0  0  0  0  0  0
    6.4757   -4.6588   25.0657 C   0  0  0  0  0  0  0  0  0  0  0  0
    9.0043    1.0084   21.2431 C   0  0  2  0  0  0  0  0  0  0  0  0
    7.7398   -3.8533   25.4980 C   0  0  0  0  0  0  0  0  0  0  0  0
    7.8363    0.3904   17.6883 N   0  0  0  0  0  0  0  0  0  0  0  0
   10.9659    0.2954   22.4491 N   0  0  0  0  0  0  0  0  0  0  0  0
    8.2226    1.0133   22.5226 N   0  0  0  0  0  0  0  0  0  0  0  0
    7.0406    2.4099   24.0104 O   0  0  0  0  0  0  0  0  0  0  0  0
   10.2866   -0.9120   20.5541 O   0  0  0  0  0  0  0  0  0  0  0  0
   15.7951   -2.6412   24.2307 Cl  0  0  0  0  0  0  0  0  0  0  0  0
    4.8937   -0.1113   19.2967 H   0  0  0  0  0  0  0  0  0  0  0  0
    6.3236    0.4074   21.2633 H   0  0  0  0  0  0  0  0  0  0  0  0
    7.9014   -1.2845   26.4520 H   0  0  0  0  0  0  0  0  0  0  0  0
    7.8683   -3.5289   22.7752 H   0  0  0  0  0  0  0  0  0  0  0  0
    8.1066    0.8108   25.1729 H   0  0  0  0  0  0  0  0  0  0  0  0
    8.0765   -1.4350   21.4936 H   0  0  0  0  0  0  0  0  0  0  0  0
   12.4950    0.9005   24.5547 H   0  0  0  0  0  0  0  0  0  0  0  0
   12.0100   -1.8754   21.2934 H   0  0  0  0  0  0  0  0  0  0  0  0
   14.4992   -0.3166   25.2947 H   0  0  0  0  0  0  0  0  0  0  0  0
   14.0136   -3.0949   22.0314 H   0  0  0  0  0  0  0  0  0  0  0  0
    5.9448   -0.1010   17.0285 H   0  0  0  0  0  0  0  0  0  0  0  0
    9.6320    0.8821   18.5646 H   0  0  0  0  0  0  0  0  0  0  0  0
    8.2087    5.5532   22.0391 H   0  0  0  0  0  0  0  0  0  0  0  0
    7.9951    4.8466   23.7401 H   0  0  0  0  0  0  0  0  0  0  0  0
    7.9912    3.3537   21.0432 H   0  0  0  0  0  0  0  0  0  0  0  0
    5.1217   -2.9863   24.7086 H   0  0  0  0  0  0  0  0  0  0  0  0
    4.9974   -3.7043   26.3141 H   0  0  0  0  0  0  0  0  0  0  0  0
    4.3003   -4.5456   24.9269 H   0  0  0  0  0  0  0  0  0  0  0  0
    7.6046   -4.6054   27.5550 H   0  0  0  0  0  0  0  0  0  0  0  0
    6.8533   -3.0227   27.3432 H   0  0  0  0  0  0  0  0  0  0  0  0
    8.6143   -3.1685   27.3965 H   0  0  0  0  0  0  0  0  0  0  0  0
    8.9590   -5.6788   25.7521 H   0  0  0  0  0  0  0  0  0  0  0  0
    9.9071   -4.2124   25.5128 H   0  0  0  0  0  0  0  0  0  0  0  0
    9.0706   -4.9588   24.1424 H   0  0  0  0  0  0  0  0  0  0  0  0
    6.4324   -5.5965   25.6361 H   0  0  0  0  0  0  0  0  0  0  0  0
    6.5537   -4.9588   24.0134 H   0  0  0  0  0  0  0  0  0  0  0  0
    9.4320    2.0117   21.1260 H   0  0  0  0  0  0  0  0  0  0  0  0
   10.7026    1.1065   23.0048 H   0  0  0  0  0  0  0  0  0  0  0  0
  1  2  2  0  0  0  0
  1 11  1  0  0  0  0
  2 14  1  0  0  0  0
  3  5  2  0  0  0  0
  3 13  1  0  0  0  0
  4  6  1  0  0  0  0
  4 13  2  0  0  0  0
  5 16  1  0  0  0  0
  6 16  2  0  0  0  0
  7  9  2  0  0  0  0
  7 15  1  0  0  0  0
  8 10  1  0  0  0  0
  8 15  2  0  0  0  0
  9 17  1  0  0  0  0
 10 17  2  0  0  0  0
 11 28  2  0  0  0  0
 12 14  2  0  0  0  0
 12 28  1  0  0  0  0
 13 27  1  0  0  0  0
 14 26  1  0  0  0  0
 15 29  1  0  0  0  0
 16 30  1  0  0  0  0
 17 33  1  0  0  0  0
 18 19  2  0  0  0  0
 19 20  1  0  0  0  0
 20 30  1  0  0  0  0
 20 31  2  0  0  0  0
 21 26  1  0  0  0  0
 21 29  1  0  0  0  0
 21 32  2  0  0  0  0
 22 25  1  0  0  0  0
 23 27  1  0  0  0  0
 24 27  1  0  0  0  0
 25 27  1  0  0  0  0
 26 30  1  0  0  0  0
  1 34  1  0  0  0  0
  2 35  1  0  0  0  0
  3 36  1  0  0  0  0
  4 37  1  0  0  0  0
  5 38  1  0  0  0  0
  6 39  1  0  0  0  0
  7 40  1  0  0  0  0
  8 41  1  0  0  0  0
  9 42  1  0  0  0  0
 10 43  1  0  0  0  0
 11 44  1  0  0  0  0
 12 45  1  0  0  0  0
 18 46  1  0  0  0  0
 18 47  1  0  0  0  0
 19 48  1  0  0  0  0
 22 49  1  0  0  0  0
 22 50  1  0  0  0  0
 22 51  1  0  0  0  0
 23 52  1  0  0  0  0
 23 53  1  0  0  0  0
 23 54  1  0  0  0  0
 24 55  1  0  0  0  0
 24 56  1  0  0  0  0
 24 57  1  0  0  0  0
 25 58  1  0  0  0  0
 25 59  1  0  0  0  0
 26 60  1  0  0  0  0
 29 61  1  0  0  0  0
M  END
> <series>
3-aminopyridine-like

> <r_inhibition_at_20_uM>
11.254126943

> <r_inhibition_at_50_uM>

> <r_IC50>

> <f_inhibition_at_20_uM>
16.53021

> <f_inhibition_at_50_uM>
22.655935

> <f_avg_IC50>

> <f_avg_pIC50>

> <ASSAYED>
True

> <Hybrid2>
-9.839128

> <docked_fragment>
x0678

> <Mpro-_dock>
-4.103518

> <site>
active-noncovalent

$$$$
JAG-UCB-cedd89ab-3
  -OEChem-07042000473D

 24 25  0     0  0  0  0  0  0999 V2000
   12.3220   -1.8778   22.6992 C   0  0  0  0  0  0  0  0  0  0  0  0
   11.3749    0.2567   22.0800 C   0  0  0  0  0  0  0  0  0  0  0  0
   13.2935    0.1659   23.5455 C   0  0  0  0  0  0  0  0  0  0  0  0
    5.5300    1.0732   19.1132 C   0  0  0  0  0  0  0  0  0  0  0  0
   11.3668   -1.1361   22.0043 C   0  0  0  0  0  0  0  0  0  0  0  0
   13.2854   -1.2268   23.4699 C   0  0  0  0  0  0  0  0  0  0  0  0
   12.3383    0.9078   22.8506 C   0  0  0  0  0  0  0  0  0  0  0  0
    7.5793   -0.0867   19.2619 C   0  0  0  0  0  0  0  0  0  0  0  0
    9.0125   -1.0825   21.0783 C   0  0  0  0  0  0  0  0  0  0  0  0
   10.3381   -1.8328   21.1791 C   0  0  0  0  0  0  0  0  0  0  0  0
    6.0770    0.8956   17.9295 N   0  0  0  0  0  0  0  0  0  0  0  0
    7.2785    0.2144   18.0166 N   0  0  0  0  0  0  0  0  0  0  0  0
    8.7144   -0.7745   19.7533 N   0  0  0  0  0  0  0  0  0  0  0  0
    8.3444   -0.8143   22.0718 O   0  0  0  0  0  0  0  0  0  0  0  0
    6.4298    0.4310   20.4247 S   0  0  0  0  0  0  0  0  0  0  0  0
   14.4630   -2.1424   24.3282 Cl  0  0  0  0  0  0  0  0  0  0  0  0
   12.3485    2.6265   22.9428 Cl  0  0  0  0  0  0  0  0  0  0  0  0
   12.3118   -2.9638   22.6369 H   0  0  0  0  0  0  0  0  0  0  0  0
   10.6275    0.8300   21.5361 H   0  0  0  0  0  0  0  0  0  0  0  0
   14.0448    0.6731   24.1472 H   0  0  0  0  0  0  0  0  0  0  0  0
    4.5876    1.5842   19.2508 H   0  0  0  0  0  0  0  0  0  0  0  0
   10.7149   -1.9975   20.1562 H   0  0  0  0  0  0  0  0  0  0  0  0
   10.1335   -2.8350   21.5904 H   0  0  0  0  0  0  0  0  0  0  0  0
    9.3916   -1.0796   19.0574 H   0  0  0  0  0  0  0  0  0  0  0  0
  1  5  1  0  0  0  0
  1  6  2  0  0  0  0
  2  5  2  0  0  0  0
  2  7  1  0  0  0  0
  3  6  1  0  0  0  0
  3  7  2  0  0  0  0
  4 11  2  0  0  0  0
  4 15  1  0  0  0  0
  5 10  1  0  0  0  0
  6 16  1  0  0  0  0
  7 17  1  0  0  0  0
  8 12  2  0  0  0  0
  8 13  1  0  0  0  0
  8 15  1  0  0  0  0
  9 10  1  0  0  0  0
  9 13  1  0  0  0  0
  9 14  2  0  0  0  0
 11 12  1  0  0  0  0
  1 18  1  0  0  0  0
  2 19  1  0  0  0  0
  3 20  1  0  0  0  0
  4 21  1  0  0  0  0
 10 22  1  0  0  0  0
 10 23  1  0  0  0  0
 13 24  1  0  0  0  0
M  END
> <series>
3-aminopyridine-like

> <r_inhibition_at_20_uM>

> <r_inhibition_at_50_uM>
0.0

> <r_IC50>

> <f_inhibition_at_20_uM>
13.928838

> <f_inhibition_at_50_uM>
-0.8211735000000001

> <f_avg_IC50>

> <f_avg_pIC50>

> <ASSAYED>
True

> <Hybrid2>
-9.832669

> <docked_fragment>
x0678

> <Mpro-_dock>
-5.81855

> <site>
active-noncovalent

$$$$
ANN-UNI-98d2bf15-2
  -OEChem-07042000473D

 35 36  0     0  0  0  0  0  0999 V2000
   11.4172    0.5342   24.5156 C   0  0  0  0  0  0  0  0  0  0  0  0
   12.6366   -0.1370   24.4257 C   0  0  0  0  0  0  0  0  0  0  0  0
   10.2790   -0.0037   23.9148 C   0  0  0  0  0  0  0  0  0  0  0  0
    5.4409    1.0651   18.6309 C   0  0  0  0  0  0  0  0  0  0  0  0
   11.5798   -1.8840   23.1340 C   0  0  0  0  0  0  0  0  0  0  0  0
    6.2145    0.9374   17.4885 C   0  0  0  0  0  0  0  0  0  0  0  0
    7.8658   -0.1857   18.6242 C   0  0  0  0  0  0  0  0  0  0  0  0
   12.7179   -1.3461   23.7349 C   0  0  0  0  0  0  0  0  0  0  0  0
   10.3603   -1.2127   23.2240 C   0  0  0  0  0  0  0  0  0  0  0  0
    5.9348    0.5285   19.8146 C   0  0  0  0  0  0  0  0  0  0  0  0
    7.1697   -0.1105   19.8198 C   0  0  0  0  0  0  0  0  0  0  0  0
   13.9893   -2.0459   23.6418 C   0  0  0  0  0  0  0  0  0  0  0  0
    8.9318   -1.3353   21.1389 C   0  0  0  0  0  0  0  0  0  0  0  0
    5.1219    0.6524   21.0615 C   0  0  0  0  0  0  0  0  0  0  0  0
    9.1433   -1.7879   22.5813 C   0  0  0  0  0  0  0  0  0  0  0  0
    7.4185    0.3236   17.4545 N   0  0  0  0  0  0  0  0  0  0  0  0
   15.0941   -1.4667   24.2594 N   0  0  0  0  0  0  0  0  0  0  0  0
    7.7149   -0.6728   20.9986 N   0  0  0  0  0  0  0  0  0  0  0  0
   14.0958   -3.1169   23.0189 O   0  0  0  0  0  0  0  0  0  0  0  0
    9.7618   -1.5578   20.2633 O   0  0  0  0  0  0  0  0  0  0  0  0
   11.3542    1.4762   25.0525 H   0  0  0  0  0  0  0  0  0  0  0  0
   13.5172    0.2909   24.8980 H   0  0  0  0  0  0  0  0  0  0  0  0
    9.3330    0.5259   23.9905 H   0  0  0  0  0  0  0  0  0  0  0  0
    4.4815    1.5698   18.5931 H   0  0  0  0  0  0  0  0  0  0  0  0
   11.6416   -2.8261   22.5940 H   0  0  0  0  0  0  0  0  0  0  0  0
    5.8742    1.3390   16.5396 H   0  0  0  0  0  0  0  0  0  0  0  0
    8.8348   -0.6724   18.5641 H   0  0  0  0  0  0  0  0  0  0  0  0
    4.4532   -0.2098   21.1661 H   0  0  0  0  0  0  0  0  0  0  0  0
    5.7638    0.7069   21.9493 H   0  0  0  0  0  0  0  0  0  0  0  0
    4.5150    1.5663   21.0497 H   0  0  0  0  0  0  0  0  0  0  0  0
    9.1903   -2.8893   22.5893 H   0  0  0  0  0  0  0  0  0  0  0  0
    8.2437   -1.5199   23.1594 H   0  0  0  0  0  0  0  0  0  0  0  0
   14.9830   -0.5859   24.7497 H   0  0  0  0  0  0  0  0  0  0  0  0
   16.0084   -1.9064   24.2299 H   0  0  0  0  0  0  0  0  0  0  0  0
    7.1521   -0.5826   21.8419 H   0  0  0  0  0  0  0  0  0  0  0  0
  1  2  1  0  0  0  0
  1  3  2  0  0  0  0
  2  8  2  0  0  0  0
  3  9  1  0  0  0  0
  4  6  2  0  0  0  0
  4 10  1  0  0  0  0
  5  8  1  0  0  0  0
  5  9  2  0  0  0  0
  6 16  1  0  0  0  0
  7 11  1  0  0  0  0
  7 16  2  0  0  0  0
  8 12  1  0  0  0  0
  9 15  1  0  0  0  0
 10 11  2  0  0  0  0
 10 14  1  0  0  0  0
 11 18  1  0  0  0  0
 12 17  1  0  0  0  0
 12 19  2  0  0  0  0
 13 15  1  0  0  0  0
 13 18  1  0  0  0  0
 13 20  2  0  0  0  0
  1 21  1  0  0  0  0
  2 22  1  0  0  0  0
  3 23  1  0  0  0  0
  4 24  1  0  0  0  0
  5 25  1  0  0  0  0
  6 26  1  0  0  0  0
  7 27  1  0  0  0  0
 14 28  1  0  0  0  0
 14 29  1  0  0  0  0
 14 30  1  0  0  0  0
 15 31  1  0  0  0  0
 15 32  1  0  0  0  0
 17 33  1  0  0  0  0
 17 34  1  0  0  0  0
 18 35  1  0  0  0  0
M  END
> <series>
3-aminopyridine-like

> <r_inhibition_at_20_uM>

> <r_inhibition_at_50_uM>
0.535

> <r_IC50>

> <f_inhibition_at_20_uM>
2.6551055000000003

> <f_inhibition_at_50_uM>
-5.830779

> <f_avg_IC50>

> <f_avg_pIC50>

> <ASSAYED>
True

> <Hybrid2>
-9.827348

> <docked_fragment>
x0678

> <Mpro-_dock>
-7.22556

> <site>
active-noncovalent

$$$$
LON-WEI-b8d98729-48
  -OEChem-07042000473D

 57 60  0     1  0  0  0  0  0999 V2000
   14.6540   -1.8742   23.0644 C   0  0  0  0  0  0  0  0  0  0  0  0
    5.7482   -0.0798   19.3785 C   0  0  0  0  0  0  0  0  0  0  0  0
   14.1918   -1.8026   21.7504 C   0  0  0  0  0  0  0  0  0  0  0  0
   13.9238   -1.2804   24.0940 C   0  0  0  0  0  0  0  0  0  0  0  0
    6.5549    0.1770   20.4814 C   0  0  0  0  0  0  0  0  0  0  0  0
    7.5800   -1.5500   25.6267 C   0  0  0  0  0  0  0  0  0  0  0  0
    7.7705   -0.3875   24.8742 C   0  0  0  0  0  0  0  0  0  0  0  0
    7.7115   -1.6654   22.8145 C   0  0  0  0  0  0  0  0  0  0  0  0
    6.3486   -0.1169   18.1303 C   0  0  0  0  0  0  0  0  0  0  0  0
    8.4215    0.3277   19.0153 C   0  0  0  0  0  0  0  0  0  0  0  0
    7.1853   -4.9636   24.6707 C   0  0  0  0  0  0  0  0  0  0  0  0
    7.9182    0.3858   20.3049 C   0  0  0  0  0  0  0  0  0  0  0  0
   12.9994   -1.1372   21.4658 C   0  0  0  0  0  0  0  0  0  0  0  0
   12.7314   -0.6149   23.8094 C   0  0  0  0  0  0  0  0  0  0  0  0
    7.4521   -2.7946   24.9728 C   0  0  0  0  0  0  0  0  0  0  0  0
    7.8352   -0.4467   23.4864 C   0  0  0  0  0  0  0  0  0  0  0  0
   12.2691   -0.5433   22.4953 C   0  0  0  0  0  0  0  0  0  0  0  0
    7.5202   -2.8291   23.5767 C   0  0  0  0  0  0  0  0  0  0  0  0
    8.0527    4.4007   22.8692 C   0  0  0  0  0  0  0  0  0  0  0  0
    7.8870    3.1898   22.3276 C   0  0  0  0  0  0  0  0  0  0  0  0
    7.5639    2.0165   23.1914 C   0  0  0  0  0  0  0  0  0  0  0  0
    9.9101   -0.3957   21.6239 C   0  0  0  0  0  0  0  0  0  0  0  0
   12.5300   -1.0773   20.0480 C   0  0  0  0  0  0  0  0  0  0  0  0
   11.2024   -1.0194   25.7549 C   0  0  0  0  0  0  0  0  0  0  0  0
   11.9718    0.0106   24.9341 C   0  0  0  0  0  0  0  0  0  0  0  0
    8.8227    0.6668   21.4845 C   0  0  2  0  0  0  0  0  0  0  0  0
    7.6692    0.0809   17.9195 N   0  0  0  0  0  0  0  0  0  0  0  0
    7.2598   -4.0246   25.5848 N   0  0  0  0  0  0  0  0  0  0  0  0
   11.0596    0.1321   22.2066 N   0  0  0  0  0  0  0  0  0  0  0  0
    8.0261    0.7256   22.7529 N   0  0  0  0  0  0  0  0  0  0  0  0
    6.9021    2.1961   24.2141 O   0  0  0  0  0  0  0  0  0  0  0  0
    9.7369   -1.5496   21.2408 O   0  0  0  0  0  0  0  0  0  0  0  0
    7.3356   -4.4583   23.0434 S   0  0  0  0  0  0  0  0  0  0  0  0
   15.5824   -2.3925   23.2862 H   0  0  0  0  0  0  0  0  0  0  0  0
    4.6830   -0.2459   19.4922 H   0  0  0  0  0  0  0  0  0  0  0  0
   14.7682   -2.2680   20.9552 H   0  0  0  0  0  0  0  0  0  0  0  0
   14.2925   -1.3425   25.1144 H   0  0  0  0  0  0  0  0  0  0  0  0
    6.1133    0.2123   21.4735 H   0  0  0  0  0  0  0  0  0  0  0  0
    7.5301   -1.4921   26.7104 H   0  0  0  0  0  0  0  0  0  0  0  0
    7.8679    0.5643   25.3914 H   0  0  0  0  0  0  0  0  0  0  0  0
    7.7608   -1.7148   21.7302 H   0  0  0  0  0  0  0  0  0  0  0  0
    5.7625   -0.3131   17.2384 H   0  0  0  0  0  0  0  0  0  0  0  0
    9.4774    0.4824   18.8158 H   0  0  0  0  0  0  0  0  0  0  0  0
    7.0366   -6.0034   24.9277 H   0  0  0  0  0  0  0  0  0  0  0  0
    8.2644    5.2547   22.2344 H   0  0  0  0  0  0  0  0  0  0  0  0
    7.9905    4.5751   23.9377 H   0  0  0  0  0  0  0  0  0  0  0  0
    7.9412    3.0617   21.2527 H   0  0  0  0  0  0  0  0  0  0  0  0
   11.8899   -1.9381   19.8243 H   0  0  0  0  0  0  0  0  0  0  0  0
   11.9615   -0.1590   19.8583 H   0  0  0  0  0  0  0  0  0  0  0  0
   13.3768   -1.0795   19.3510 H   0  0  0  0  0  0  0  0  0  0  0  0
   10.5099   -1.5876   25.1245 H   0  0  0  0  0  0  0  0  0  0  0  0
   10.6202   -0.5290   26.5413 H   0  0  0  0  0  0  0  0  0  0  0  0
   11.8842   -1.7318   26.2317 H   0  0  0  0  0  0  0  0  0  0  0  0
   12.6566    0.5626   25.5960 H   0  0  0  0  0  0  0  0  0  0  0  0
   11.2682    0.7634   24.5464 H   0  0  0  0  0  0  0  0  0  0  0  0
    9.3058    1.6443   21.3648 H   0  0  0  0  0  0  0  0  0  0  0  0
   11.0258    1.1189   22.4538 H   0  0  0  0  0  0  0  0  0  0  0  0
  1  3  1  0  0  0  0
  1  4  2  0  0  0  0
  2  5  2  0  0  0  0
  2  9  1  0  0  0  0
  3 13  2  0  0  0  0
  4 14  1  0  0  0  0
  5 12  1  0  0  0  0
  6  7  2  0  0  0  0
  6 15  1  0  0  0  0
  7 16  1  0  0  0  0
  8 16  2  0  0  0  0
  8 18  1  0  0  0  0
  9 27  2  0  0  0  0
 10 12  2  0  0  0  0
 10 27  1  0  0  0  0
 11 28  2  0  0  0  0
 11 33  1  0  0  0  0
 12 26  1  0  0  0  0
 13 17  1  0  0  0  0
 13 23  1  0  0  0  0
 14 17  2  0  0  0  0
 14 25  1  0  0  0  0
 15 18  2  0  0  0  0
 15 28  1  0  0  0  0
 16 30  1  0  0  0  0
 17 29  1  0  0  0  0
 18 33  1  0  0  0  0
 19 20  2  0  0  0  0
 20 21  1  0  0  0  0
 21 30  1  0  0  0  0
 21 31  2  0  0  0  0
 22 26  1  0  0  0  0
 22 29  1  0  0  0  0
 22 32  2  0  0  0  0
 24 25  1  0  0  0  0
 26 30  1  0  0  0  0
  1 34  1  0  0  0  0
  2 35  1  0  0  0  0
  3 36  1  0  0  0  0
  4 37  1  0  0  0  0
  5 38  1  0  0  0  0
  6 39  1  0  0  0  0
  7 40  1  0  0  0  0
  8 41  1  0  0  0  0
  9 42  1  0  0  0  0
 10 43  1  0  0  0  0
 11 44  1  0  0  0  0
 19 45  1  0  0  0  0
 19 46  1  0  0  0  0
 20 47  1  0  0  0  0
 23 48  1  0  0  0  0
 23 49  1  0  0  0  0
 23 50  1  0  0  0  0
 24 51  1  0  0  0  0
 24 52  1  0  0  0  0
 24 53  1  0  0  0  0
 25 54  1  0  0  0  0
 25 55  1  0  0  0  0
 26 56  1  0  0  0  0
 29 57  1  0  0  0  0
M  END
> <series>
3-aminopyridine-like

> <r_inhibition_at_20_uM>
0.0

> <r_inhibition_at_50_uM>

> <r_IC50>

> <f_inhibition_at_20_uM>
7.673316000000001

> <f_inhibition_at_50_uM>
10.6954605

> <f_avg_IC50>

> <f_avg_pIC50>

> <ASSAYED>
True

> <Hybrid2>
-9.825908

> <docked_fragment>
x0678

> <Mpro-_dock>
-7.31875

> <site>
active-noncovalent

$$$$
BAR-COM-4e090d3a-11
  -OEChem-07042000473D

 46 48  0     0  0  0  0  0  0999 V2000
    9.5030    6.2494   22.5991 C   0  0  0  0  0  0  0  0  0  0  0  0
    9.1580    4.9383   22.2712 C   0  0  0  0  0  0  0  0  0  0  0  0
   10.7295    6.5165   23.2075 C   0  0  0  0  0  0  0  0  0  0  0  0
   13.9670   -1.7641   22.9554 C   0  0  0  0  0  0  0  0  0  0  0  0
   10.0394    3.8942   22.5517 C   0  0  0  0  0  0  0  0  0  0  0  0
   11.6109    5.4724   23.4880 C   0  0  0  0  0  0  0  0  0  0  0  0
   14.0520   -0.7020   23.8556 C   0  0  0  0  0  0  0  0  0  0  0  0
   12.7522   -2.0578   22.3359 C   0  0  0  0  0  0  0  0  0  0  0  0
   11.7074   -0.2274   23.5169 C   0  0  0  0  0  0  0  0  0  0  0  0
    6.3858    0.1371   20.5687 C   0  0  0  0  0  0  0  0  0  0  0  0
    8.0132   -0.4777   19.0099 C   0  0  0  0  0  0  0  0  0  0  0  0
    6.4154    1.0526   18.4882 C   0  0  0  0  0  0  0  0  0  0  0  0
   11.2659    4.1613   23.1601 C   0  0  0  0  0  0  0  0  0  0  0  0
   12.9222    0.0663   24.1364 C   0  0  0  0  0  0  0  0  0  0  0  0
    7.4951   -0.6311   20.2797 C   0  0  0  0  0  0  0  0  0  0  0  0
   11.6224   -1.2894   22.6167 C   0  0  0  0  0  0  0  0  0  0  0  0
    9.1734   -0.9298   22.1498 C   0  0  0  0  0  0  0  0  0  0  0  0
    8.1019   -1.5747   21.2848 C   0  0  0  0  0  0  0  0  0  0  0  0
   12.2087    3.0453   23.4606 C   0  0  0  0  0  0  0  0  0  0  0  0
   13.0146    1.2145   25.1097 C   0  0  0  0  0  0  0  0  0  0  0  0
   12.0504    2.3816   24.8456 C   0  0  0  0  0  0  0  0  0  0  0  0
    5.8177    0.9925   19.6935 N   0  0  0  0  0  0  0  0  0  0  0  0
    7.4966    0.3581   18.0853 N   0  0  0  0  0  0  0  0  0  0  0  0
   10.4076   -1.5831   21.9964 N   0  0  0  0  0  0  0  0  0  0  0  0
    8.9402    0.0335   22.8728 O   0  0  0  0  0  0  0  0  0  0  0  0
    8.8172    7.0624   22.3794 H   0  0  0  0  0  0  0  0  0  0  0  0
    8.2035    4.7303   21.7965 H   0  0  0  0  0  0  0  0  0  0  0  0
   10.9990    7.5373   23.4619 H   0  0  0  0  0  0  0  0  0  0  0  0
   14.8467   -2.3622   22.7364 H   0  0  0  0  0  0  0  0  0  0  0  0
    9.7621    2.8758   22.2929 H   0  0  0  0  0  0  0  0  0  0  0  0
   12.5643    5.6900   23.9623 H   0  0  0  0  0  0  0  0  0  0  0  0
   15.0024   -0.4814   24.3337 H   0  0  0  0  0  0  0  0  0  0  0  0
   12.6975   -2.8879   21.6362 H   0  0  0  0  0  0  0  0  0  0  0  0
   10.8274    0.3728   23.7381 H   0  0  0  0  0  0  0  0  0  0  0  0
    5.9036    0.0897   21.5401 H   0  0  0  0  0  0  0  0  0  0  0  0
    8.8846   -1.0372   18.6843 H   0  0  0  0  0  0  0  0  0  0  0  0
    5.9787    1.7312   17.7658 H   0  0  0  0  0  0  0  0  0  0  0  0
    7.3150   -1.9726   21.9382 H   0  0  0  0  0  0  0  0  0  0  0  0
    8.5402   -2.4348   20.7627 H   0  0  0  0  0  0  0  0  0  0  0  0
   13.2569    3.3710   23.3500 H   0  0  0  0  0  0  0  0  0  0  0  0
   12.0712    2.2645   22.6936 H   0  0  0  0  0  0  0  0  0  0  0  0
   14.0441    1.5941   25.0695 H   0  0  0  0  0  0  0  0  0  0  0  0
   12.8711    0.8549   26.1364 H   0  0  0  0  0  0  0  0  0  0  0  0
   11.0323    1.9734   24.9006 H   0  0  0  0  0  0  0  0  0  0  0  0
   12.1177    3.1317   25.6415 H   0  0  0  0  0  0  0  0  0  0  0  0
   10.4169   -2.3769   21.3455 H   0  0  0  0  0  0  0  0  0  0  0  0
  1  2  1  0  0  0  0
  1  3  2  0  0  0  0
  2  5  2  0  0  0  0
  3  6  1  0  0  0  0
  4  7  1  0  0  0  0
  4  8  2  0  0  0  0
  5 13  1  0  0  0  0
  6 13  2  0  0  0  0
  7 14  2  0  0  0  0
  8 16  1  0  0  0  0
  9 14  1  0  0  0  0
  9 16  2  0  0  0  0
 10 15  1  0  0  0  0
 10 22  2  0  0  0  0
 11 15  2  0  0  0  0
 11 23  1  0  0  0  0
 12 22  1  0  0  0  0
 12 23  2  0  0  0  0
 13 19  1  0  0  0  0
 14 20  1  0  0  0  0
 15 18  1  0  0  0  0
 16 24  1  0  0  0  0
 17 18  1  0  0  0  0
 17 24  1  0  0  0  0
 17 25  2  0  0  0  0
 19 21  1  0  0  0  0
 20 21  1  0  0  0  0
  1 26  1  0  0  0  0
  2 27  1  0  0  0  0
  3 28  1  0  0  0  0
  4 29  1  0  0  0  0
  5 30  1  0  0  0  0
  6 31  1  0  0  0  0
  7 32  1  0  0  0  0
  8 33  1  0  0  0  0
  9 34  1  0  0  0  0
 10 35  1  0  0  0  0
 11 36  1  0  0  0  0
 12 37  1  0  0  0  0
 18 38  1  0  0  0  0
 18 39  1  0  0  0  0
 19 40  1  0  0  0  0
 19 41  1  0  0  0  0
 20 42  1  0  0  0  0
 20 43  1  0  0  0  0
 21 44  1  0  0  0  0
 21 45  1  0  0  0  0
 24 46  1  0  0  0  0
M  END
> <series>
3-aminopyridine-like

> <r_inhibition_at_20_uM>
0.0

> <r_inhibition_at_50_uM>
0.0

> <r_IC50>

> <f_inhibition_at_20_uM>
1.12288025

> <f_inhibition_at_50_uM>
10.109647

> <f_avg_IC50>

> <f_avg_pIC50>

> <ASSAYED>
True

> <Hybrid2>
-9.786640

> <docked_fragment>
x0678

> <Mpro-_dock>
-8.731497

> <site>
active-noncovalent

$$$$
DAR-DIA-842b4336-7
  -OEChem-07042000473D

 26 27  0     0  0  0  0  0  0999 V2000
   12.7114   -1.0240   24.3197 C   0  0  0  0  0  0  0  0  0  0  0  0
   11.8038   -0.8060   23.2892 C   0  0  0  0  0  0  0  0  0  0  0  0
   13.9873   -1.4456   23.9818 C   0  0  0  0  0  0  0  0  0  0  0  0
   13.4934   -1.4352   21.7382 C   0  0  0  0  0  0  0  0  0  0  0  0
    6.1147    0.7420   19.6287 C   0  0  0  0  0  0  0  0  0  0  0  0
   12.1943   -1.0133   21.9709 C   0  0  0  0  0  0  0  0  0  0  0  0
    6.3395    0.5836   18.2837 C   0  0  0  0  0  0  0  0  0  0  0  0
    8.1222    0.0885   19.2837 C   0  0  0  0  0  0  0  0  0  0  0  0
    9.9560   -0.3771   20.9687 C   0  0  0  0  0  0  0  0  0  0  0  0
    5.4144    0.8016   17.1635 C   0  0  0  0  0  0  0  0  0  0  0  0
   14.4032   -1.6575   22.7131 N   0  0  0  0  0  0  0  0  0  0  0  0
    7.6277    0.1650   18.0688 N   0  0  0  0  0  0  0  0  0  0  0  0
   11.3073   -0.8035   20.9179 N   0  0  0  0  0  0  0  0  0  0  0  0
    9.4280   -0.2955   19.6702 N   0  0  0  0  0  0  0  0  0  0  0  0
    9.3448   -0.1191   22.0007 O   0  0  0  0  0  0  0  0  0  0  0  0
    7.2644    0.4235   20.2861 O   0  0  0  0  0  0  0  0  0  0  0  0
   12.4289   -0.8687   25.3547 H   0  0  0  0  0  0  0  0  0  0  0  0
   10.7957   -0.4749   23.5243 H   0  0  0  0  0  0  0  0  0  0  0  0
   14.7320   -1.6304   24.7490 H   0  0  0  0  0  0  0  0  0  0  0  0
   13.8569   -1.6138   20.7306 H   0  0  0  0  0  0  0  0  0  0  0  0
    5.2775    1.0446   20.2398 H   0  0  0  0  0  0  0  0  0  0  0  0
    5.4678    1.8405   16.7914 H   0  0  0  0  0  0  0  0  0  0  0  0
    5.6258    0.1340   16.3073 H   0  0  0  0  0  0  0  0  0  0  0  0
    4.3622    0.6053   17.4424 H   0  0  0  0  0  0  0  0  0  0  0  0
   11.6821   -0.9814   19.9788 H   0  0  0  0  0  0  0  0  0  0  0  0
   10.0559   -0.5420   18.9094 H   0  0  0  0  0  0  0  0  0  0  0  0
  1  2  2  0  0  0  0
  1  3  1  0  0  0  0
  2  6  1  0  0  0  0
  3 11  2  0  0  0  0
  4  6  2  0  0  0  0
  4 11  1  0  0  0  0
  5  7  2  0  0  0  0
  5 16  1  0  0  0  0
  6 13  1  0  0  0  0
  7 10  1  0  0  0  0
  7 12  1  0  0  0  0
  8 12  2  0  0  0  0
  8 14  1  0  0  0  0
  8 16  1  0  0  0  0
  9 13  1  0  0  0  0
  9 14  1  0  0  0  0
  9 15  2  0  0  0  0
  1 17  1  0  0  0  0
  2 18  1  0  0  0  0
  3 19  1  0  0  0  0
  4 20  1  0  0  0  0
  5 21  1  0  0  0  0
 10 22  1  0  0  0  0
 10 23  1  0  0  0  0
 10 24  1  0  0  0  0
 13 25  1  0  0  0  0
 14 26  1  0  0  0  0
M  END
> <series>
3-aminopyridine-like

> <r_inhibition_at_20_uM>
2.7575

> <r_inhibition_at_50_uM>
8.515

> <r_IC50>

> <f_inhibition_at_20_uM>
2.9070655

> <f_inhibition_at_50_uM>
8.855559

> <f_avg_IC50>

> <f_avg_pIC50>

> <ASSAYED>
True

> <Hybrid2>
-9.765095

> <docked_fragment>
x0678

> <Mpro-_dock>
-4.771683

> <site>
active-noncovalent

$$$$
TRY-UNI-714a760b-12
  -OEChem-07042000473D

 30 31  0     0  0  0  0  0  0999 V2000
   13.2646   -0.4107   24.8127 C   0  0  0  0  0  0  0  0  0  0  0  0
   12.0197   -0.0182   24.3212 C   0  0  0  0  0  0  0  0  0  0  0  0
   14.1976   -0.9991   23.9588 C   0  0  0  0  0  0  0  0  0  0  0  0
    5.7154    1.2675   18.9399 C   0  0  0  0  0  0  0  0  0  0  0  0
   12.6405   -0.8026   22.1220 C   0  0  0  0  0  0  0  0  0  0  0  0
    6.2301    0.7705   17.7534 C   0  0  0  0  0  0  0  0  0  0  0  0
    8.2180    0.1969   18.7521 C   0  0  0  0  0  0  0  0  0  0  0  0
    6.5198    1.2112   20.0725 C   0  0  0  0  0  0  0  0  0  0  0  0
   11.7076   -0.2142   22.9759 C   0  0  0  0  0  0  0  0  0  0  0  0
    7.7965    0.6672   19.9853 C   0  0  0  0  0  0  0  0  0  0  0  0
   13.8855   -1.1951   22.6135 C   0  0  0  0  0  0  0  0  0  0  0  0
    9.9557    0.0678   21.1675 C   0  0  0  0  0  0  0  0  0  0  0  0
    5.9903    1.7405   21.3649 C   0  0  0  0  0  0  0  0  0  0  0  0
    7.4652    0.2347   17.6299 N   0  0  0  0  0  0  0  0  0  0  0  0
   10.4616    0.1780   22.4858 N   0  0  0  0  0  0  0  0  0  0  0  0
    8.6525    0.5872   21.1090 N   0  0  0  0  0  0  0  0  0  0  0  0
   10.5714   -0.4120   20.2210 O   0  0  0  0  0  0  0  0  0  0  0  0
   15.0366   -1.9210   21.5598 Cl  0  0  0  0  0  0  0  0  0  0  0  0
   13.5076   -0.2581   25.8603 H   0  0  0  0  0  0  0  0  0  0  0  0
   11.3005    0.4392   24.9962 H   0  0  0  0  0  0  0  0  0  0  0  0
   15.1637   -1.2995   24.3561 H   0  0  0  0  0  0  0  0  0  0  0  0
    4.7151    1.6858   18.9742 H   0  0  0  0  0  0  0  0  0  0  0  0
   12.3939   -0.9536   21.0733 H   0  0  0  0  0  0  0  0  0  0  0  0
    5.6428    0.7913   16.8413 H   0  0  0  0  0  0  0  0  0  0  0  0
    9.2039   -0.2392   18.6205 H   0  0  0  0  0  0  0  0  0  0  0  0
    5.4749    0.9466   21.9177 H   0  0  0  0  0  0  0  0  0  0  0  0
    6.7987    2.1355   21.9924 H   0  0  0  0  0  0  0  0  0  0  0  0
    5.2853    2.5640   21.1967 H   0  0  0  0  0  0  0  0  0  0  0  0
    9.8277    0.6024   23.1712 H   0  0  0  0  0  0  0  0  0  0  0  0
    8.2712    0.9532   21.9778 H   0  0  0  0  0  0  0  0  0  0  0  0
  1  2  2  0  0  0  0
  1  3  1  0  0  0  0
  2  9  1  0  0  0  0
  3 11  2  0  0  0  0
  4  6  2  0  0  0  0
  4  8  1  0  0  0  0
  5  9  2  0  0  0  0
  5 11  1  0  0  0  0
  6 14  1  0  0  0  0
  7 10  1  0  0  0  0
  7 14  2  0  0  0  0
  8 10  2  0  0  0  0
  8 13  1  0  0  0  0
  9 15  1  0  0  0  0
 10 16  1  0  0  0  0
 11 18  1  0  0  0  0
 12 15  1  0  0  0  0
 12 16  1  0  0  0  0
 12 17  2  0  0  0  0
  1 19  1  0  0  0  0
  2 20  1  0  0  0  0
  3 21  1  0  0  0  0
  4 22  1  0  0  0  0
  5 23  1  0  0  0  0
  6 24  1  0  0  0  0
  7 25  1  0  0  0  0
 13 26  1  0  0  0  0
 13 27  1  0  0  0  0
 13 28  1  0  0  0  0
 15 29  1  0  0  0  0
 16 30  1  0  0  0  0
M  END
> <series>
3-aminopyridine-like

> <r_inhibition_at_20_uM>
25.5825

> <r_inhibition_at_50_uM>
64.13499999999999

> <r_IC50>
45.68926278614792

> <f_inhibition_at_20_uM>
32.14497

> <f_inhibition_at_50_uM>
58.708675

> <f_avg_IC50>
64.41361051443023

> <f_avg_pIC50>
4.191022357069093

> <ASSAYED>
True

> <Hybrid2>
-9.759779

> <docked_fragment>
x0678

> <Mpro-_dock>
-5.205123

> <site>
active-noncovalent

$$$$
BAR-COM-0f94fc3d-20
  -OEChem-07042000473D

 45 48  0     0  0  0  0  0  0999 V2000
   14.5562   -1.4592   24.1400 C   0  0  0  0  0  0  0  0  0  0  0  0
   13.9109   -2.4208   23.3650 C   0  0  0  0  0  0  0  0  0  0  0  0
   13.8891   -0.2953   24.5393 C   0  0  0  0  0  0  0  0  0  0  0  0
   12.5822   -2.2514   22.9652 C   0  0  0  0  0  0  0  0  0  0  0  0
    5.9649    1.6324   18.5515 C   0  0  0  0  0  0  0  0  0  0  0  0
    6.5314    1.2537   17.3451 C   0  0  0  0  0  0  0  0  0  0  0  0
    5.8432    1.8638   22.9919 C   0  0  0  0  0  0  0  0  0  0  0  0
    8.0510   -0.1186   18.3871 C   0  0  0  0  0  0  0  0  0  0  0  0
   10.4292    0.5593   23.7273 C   0  0  0  0  0  0  0  0  0  0  0  0
    4.6439    1.8061   21.1498 C   0  0  0  0  0  0  0  0  0  0  0  0
   12.5492   -0.1026   24.1481 C   0  0  0  0  0  0  0  0  0  0  0  0
    4.5457    2.0828   22.4915 C   0  0  0  0  0  0  0  0  0  0  0  0
   11.5915    0.9274   24.3648 C   0  0  0  0  0  0  0  0  0  0  0  0
   11.9280   -1.0831   23.3716 C   0  0  0  0  0  0  0  0  0  0  0  0
    6.4927    1.0889   19.7174 C   0  0  0  0  0  0  0  0  0  0  0  0
    7.5558    0.1959   19.6423 C   0  0  0  0  0  0  0  0  0  0  0  0
    9.4532   -0.7942   20.9696 C   0  0  0  0  0  0  0  0  0  0  0  0
    3.3513    2.5117   23.2361 C   0  0  0  0  0  0  0  0  0  0  0  0
   11.7980    2.1719   25.1331 C   0  0  0  0  0  0  0  0  0  0  0  0
    9.6478   -1.3700   22.3601 C   0  0  0  0  0  0  0  0  0  0  0  0
    7.5645    0.3891   17.2324 N   0  0  0  0  0  0  0  0  0  0  0  0
    6.7026    1.4776   22.0452 N   0  0  0  0  0  0  0  0  0  0  0  0
   10.6418   -0.6549   23.1314 N   0  0  0  0  0  0  0  0  0  0  0  0
    5.9436    1.4516   20.9364 N   0  0  0  0  0  0  0  0  0  0  0  0
    8.1331   -0.3883   20.7947 N   0  0  0  0  0  0  0  0  0  0  0  0
   10.3688   -0.7206   20.1567 O   0  0  0  0  0  0  0  0  0  0  0  0
   15.5899   -1.6132   24.4384 H   0  0  0  0  0  0  0  0  0  0  0  0
   14.4478   -3.3174   23.0656 H   0  0  0  0  0  0  0  0  0  0  0  0
   14.4057    0.4452   25.1431 H   0  0  0  0  0  0  0  0  0  0  0  0
   12.0849   -3.0035   22.3620 H   0  0  0  0  0  0  0  0  0  0  0  0
    5.1357    2.3326   18.5699 H   0  0  0  0  0  0  0  0  0  0  0  0
    6.1563    1.6491   16.4069 H   0  0  0  0  0  0  0  0  0  0  0  0
    6.2008    1.9688   24.0064 H   0  0  0  0  0  0  0  0  0  0  0  0
    8.8795   -0.8098   18.2624 H   0  0  0  0  0  0  0  0  0  0  0  0
    9.4729    1.0593   23.6466 H   0  0  0  0  0  0  0  0  0  0  0  0
    3.9131    1.8322   20.3520 H   0  0  0  0  0  0  0  0  0  0  0  0
    3.2624    3.6120   23.2540 H   0  0  0  0  0  0  0  0  0  0  0  0
    2.4190    2.1113   22.7981 H   0  0  0  0  0  0  0  0  0  0  0  0
    3.3646    2.1633   24.2849 H   0  0  0  0  0  0  0  0  0  0  0  0
   11.5351    2.0309   26.1939 H   0  0  0  0  0  0  0  0  0  0  0  0
   12.8454    2.5151   25.0893 H   0  0  0  0  0  0  0  0  0  0  0  0
   11.1874    3.0038   24.7432 H   0  0  0  0  0  0  0  0  0  0  0  0
    8.7015   -1.3351   22.9121 H   0  0  0  0  0  0  0  0  0  0  0  0
    9.9634   -2.4171   22.2883 H   0  0  0  0  0  0  0  0  0  0  0  0
    7.4986   -0.5207   21.5796 H   0  0  0  0  0  0  0  0  0  0  0  0
  1  2  1  0  0  0  0
  1  3  2  0  0  0  0
  2  4  2  0  0  0  0
  3 11  1  0  0  0  0
  4 14  1  0  0  0  0
  5  6  2  0  0  0  0
  5 15  1  0  0  0  0
  6 21  1  0  0  0  0
  7 12  1  0  0  0  0
  7 22  2  0  0  0  0
  8 16  1  0  0  0  0
  8 21  2  0  0  0  0
  9 13  2  0  0  0  0
  9 23  1  0  0  0  0
 10 12  2  0  0  0  0
 10 24  1  0  0  0  0
 11 13  1  0  0  0  0
 11 14  2  0  0  0  0
 12 18  1  0  0  0  0
 13 19  1  0  0  0  0
 14 23  1  0  0  0  0
 15 16  2  0  0  0  0
 15 24  1  0  0  0  0
 16 25  1  0  0  0  0
 17 20  1  0  0  0  0
 17 25  1  0  0  0  0
 17 26  2  0  0  0  0
 20 23  1  0  0  0  0
 22 24  1  0  0  0  0
  1 27  1  0  0  0  0
  2 28  1  0  0  0  0
  3 29  1  0  0  0  0
  4 30  1  0  0  0  0
  5 31  1  0  0  0  0
  6 32  1  0  0  0  0
  7 33  1  0  0  0  0
  8 34  1  0  0  0  0
  9 35  1  0  0  0  0
 10 36  1  0  0  0  0
 18 37  1  0  0  0  0
 18 38  1  0  0  0  0
 18 39  1  0  0  0  0
 19 40  1  0  0  0  0
 19 41  1  0  0  0  0
 19 42  1  0  0  0  0
 20 43  1  0  0  0  0
 20 44  1  0  0  0  0
 25 45  1  0  0  0  0
M  END
> <series>
3-aminopyridine-like

> <r_inhibition_at_20_uM>

> <r_inhibition_at_50_uM>
0.0

> <r_IC50>

> <f_inhibition_at_20_uM>
-8.606670000000001

> <f_inhibition_at_50_uM>
-0.4173419999999999

> <f_avg_IC50>

> <f_avg_pIC50>

> <ASSAYED>
True

> <Hybrid2>
-9.756511

> <docked_fragment>
x0678

> <Mpro-_dock>
-6.59235

> <site>
active-noncovalent

$$$$
LON-WEI-b8d98729-27
  -OEChem-07042000473D

 53 55  0     1  0  0  0  0  0999 V2000
    6.0467    0.6545   19.5905 C   0  0  0  0  0  0  0  0  0  0  0  0
    6.8327    0.0853   20.5863 C   0  0  0  0  0  0  0  0  0  0  0  0
   13.5575   -0.3945   22.5686 C   0  0  0  0  0  0  0  0  0  0  0  0
   12.4681   -2.4055   23.3473 C   0  0  0  0  0  0  0  0  0  0  0  0
   12.3307    0.0979   22.1239 C   0  0  0  0  0  0  0  0  0  0  0  0
   11.2412   -1.9130   22.9026 C   0  0  0  0  0  0  0  0  0  0  0  0
    6.7344   -5.1659   22.7486 C   0  0  0  0  0  0  0  0  0  0  0  0
    6.5024   -3.3516   24.3271 C   0  0  0  0  0  0  0  0  0  0  0  0
    5.9871   -5.9919   23.5882 C   0  0  0  0  0  0  0  0  0  0  0  0
    5.7551   -4.1776   25.1666 C   0  0  0  0  0  0  0  0  0  0  0  0
    6.5174    0.6100   18.2881 C   0  0  0  0  0  0  0  0  0  0  0  0
    8.4290   -0.4955   18.9219 C   0  0  0  0  0  0  0  0  0  0  0  0
   13.6263   -1.6463   23.1803 C   0  0  0  0  0  0  0  0  0  0  0  0
    8.0481   -0.5026   20.2540 C   0  0  0  0  0  0  0  0  0  0  0  0
    6.9921   -3.8457   23.1181 C   0  0  0  0  0  0  0  0  0  0  0  0
   11.1725   -0.6612   22.2909 C   0  0  0  0  0  0  0  0  0  0  0  0
    5.4974   -5.4977   24.7972 C   0  0  0  0  0  0  0  0  0  0  0  0
   10.6063    3.3155   22.6549 C   0  0  0  0  0  0  0  0  0  0  0  0
   10.2693    2.0407   22.8746 C   0  0  0  0  0  0  0  0  0  0  0  0
    9.6276    1.2348   21.7948 C   0  0  0  0  0  0  0  0  0  0  0  0
    8.0995   -1.6759   22.4764 C   0  0  0  0  0  0  0  0  0  0  0  0
    4.5423   -7.6423   25.1773 C   0  0  0  0  0  0  0  0  0  0  0  0
    8.9256   -1.1308   21.3141 C   0  0  2  0  0  0  0  0  0  0  0  0
   14.9381   -2.1728   23.6558 C   0  0  0  0  0  0  0  0  0  0  0  0
    7.6925    0.0476   17.9268 N   0  0  0  0  0  0  0  0  0  0  0  0
    7.7504   -3.0076   22.2665 N   0  0  0  0  0  0  0  0  0  0  0  0
    9.8945   -0.1485   21.8281 N   0  0  0  0  0  0  0  0  0  0  0  0
    8.9327    1.8106   20.9570 O   0  0  0  0  0  0  0  0  0  0  0  0
    7.8026   -0.9756   23.4406 O   0  0  0  0  0  0  0  0  0  0  0  0
    4.7682   -6.3037   25.6164 O   0  0  0  0  0  0  0  0  0  0  0  0
   15.9840   -1.3244   23.4269 F   0  0  0  0  0  0  0  0  0  0  0  0
   14.9719   -2.4256   24.9976 F   0  0  0  0  0  0  0  0  0  0  0  0
   15.2818   -3.3482   23.0530 F   0  0  0  0  0  0  0  0  0  0  0  0
    5.0957    1.1181   19.8263 H   0  0  0  0  0  0  0  0  0  0  0  0
    6.4904    0.1044   21.6175 H   0  0  0  0  0  0  0  0  0  0  0  0
   14.4552    0.2028   22.4324 H   0  0  0  0  0  0  0  0  0  0  0  0
   12.5126   -3.3821   23.8222 H   0  0  0  0  0  0  0  0  0  0  0  0
   12.2888    1.0749   21.6489 H   0  0  0  0  0  0  0  0  0  0  0  0
   10.3449   -2.5134   23.0368 H   0  0  0  0  0  0  0  0  0  0  0  0
    7.1111   -5.5615   21.8087 H   0  0  0  0  0  0  0  0  0  0  0  0
    6.6971   -2.3245   24.6254 H   0  0  0  0  0  0  0  0  0  0  0  0
    5.7897   -7.0194   23.2949 H   0  0  0  0  0  0  0  0  0  0  0  0
    5.3763   -3.7869   26.1072 H   0  0  0  0  0  0  0  0  0  0  0  0
    5.9417    1.0403   17.4752 H   0  0  0  0  0  0  0  0  0  0  0  0
    9.3668   -0.9395   18.6024 H   0  0  0  0  0  0  0  0  0  0  0  0
   11.0938    3.8901   23.4356 H   0  0  0  0  0  0  0  0  0  0  0  0
   10.4065    3.8179   21.7150 H   0  0  0  0  0  0  0  0  0  0  0  0
   10.5019    1.5714   23.8234 H   0  0  0  0  0  0  0  0  0  0  0  0
    3.9481   -8.1759   25.9231 H   0  0  0  0  0  0  0  0  0  0  0  0
    5.5014   -8.1457   25.0318 H   0  0  0  0  0  0  0  0  0  0  0  0
    3.9981   -7.6186   24.2302 H   0  0  0  0  0  0  0  0  0  0  0  0
    9.5054   -1.9563   20.8831 H   0  0  0  0  0  0  0  0  0  0  0  0
    8.0789   -3.4271   21.3993 H   0  0  0  0  0  0  0  0  0  0  0  0
  1  2  2  0  0  0  0
  1 11  1  0  0  0  0
  2 14  1  0  0  0  0
  3  5  2  0  0  0  0
  3 13  1  0  0  0  0
  4  6  1  0  0  0  0
  4 13  2  0  0  0  0
  5 16  1  0  0  0  0
  6 16  2  0  0  0  0
  7  9  2  0  0  0  0
  7 15  1  0  0  0  0
  8 10  1  0  0  0  0
  8 15  2  0  0  0  0
  9 17  1  0  0  0  0
 10 17  2  0  0  0  0
 11 25  2  0  0  0  0
 12 14  2  0  0  0  0
 12 25  1  0  0  0  0
 13 24  1  0  0  0  0
 14 23  1  0  0  0  0
 15 26  1  0  0  0  0
 16 27  1  0  0  0  0
 17 30  1  0  0  0  0
 18 19  2  0  0  0  0
 19 20  1  0  0  0  0
 20 27  1  0  0  0  0
 20 28  2  0  0  0  0
 21 23  1  0  0  0  0
 21 26  1  0  0  0  0
 21 29  2  0  0  0  0
 22 30  1  0  0  0  0
 23 27  1  0  0  0  0
 24 31  1  0  0  0  0
 24 32  1  0  0  0  0
 24 33  1  0  0  0  0
  1 34  1  0  0  0  0
  2 35  1  0  0  0  0
  3 36  1  0  0  0  0
  4 37  1  0  0  0  0
  5 38  1  0  0  0  0
  6 39  1  0  0  0  0
  7 40  1  0  0  0  0
  8 41  1  0  0  0  0
  9 42  1  0  0  0  0
 10 43  1  0  0  0  0
 11 44  1  0  0  0  0
 12 45  1  0  0  0  0
 18 46  1  0  0  0  0
 18 47  1  0  0  0  0
 19 48  1  0  0  0  0
 22 49  1  0  0  0  0
 22 50  1  0  0  0  0
 22 51  1  0  0  0  0
 23 52  1  0  0  0  0
 26 53  1  0  0  0  0
M  END
> <series>
3-aminopyridine-like

> <r_inhibition_at_20_uM>
59.98080035

> <r_inhibition_at_50_uM>

> <r_IC50>
26.94728405764048

> <f_inhibition_at_20_uM>
40.32765000000001

> <f_inhibition_at_50_uM>
60.67628000000001

> <f_avg_IC50>
45.99567281660222

> <f_avg_pIC50>
4.33728302397643

> <ASSAYED>
True

> <Hybrid2>
-9.748765

> <docked_fragment>
x0678

> <Mpro-_dock>
-6.149968

> <site>
active-noncovalent

$$$$
LON-WEI-b8d98729-46
  -OEChem-07042000473D

 63 65  0     1  0  0  0  0  0999 V2000
   14.5509   -1.7124   23.3882 C   0  0  0  0  0  0  0  0  0  0  0  0
    5.9475   -0.0237   19.0008 C   0  0  0  0  0  0  0  0  0  0  0  0
   14.1855   -1.6887   22.0423 C   0  0  0  0  0  0  0  0  0  0  0  0
   13.7520   -1.0773   24.3391 C   0  0  0  0  0  0  0  0  0  0  0  0
    6.6740    0.2714   20.1490 C   0  0  0  0  0  0  0  0  0  0  0  0
    7.6096   -1.5259   22.7504 C   0  0  0  0  0  0  0  0  0  0  0  0
    6.6364   -0.1103   17.8017 C   0  0  0  0  0  0  0  0  0  0  0  0
    8.6428    0.3593   18.8177 C   0  0  0  0  0  0  0  0  0  0  0  0
    8.0478    0.4681   20.0643 C   0  0  0  0  0  0  0  0  0  0  0  0
   13.0213   -1.0299   21.6472 C   0  0  0  0  0  0  0  0  0  0  0  0
   12.5878   -0.4184   23.9440 C   0  0  0  0  0  0  0  0  0  0  0  0
   12.2224   -0.3947   22.5980 C   0  0  0  0  0  0  0  0  0  0  0  0
    7.3562   -2.2931   23.8564 C   0  0  0  0  0  0  0  0  0  0  0  0
    7.7200   -0.2229   23.2657 C   0  0  0  0  0  0  0  0  0  0  0  0
    8.0363    4.5890   22.4422 C   0  0  0  0  0  0  0  0  0  0  0  0
    7.8959    3.3549   21.9480 C   0  0  0  0  0  0  0  0  0  0  0  0
    7.5008    2.2266   22.8414 C   0  0  0  0  0  0  0  0  0  0  0  0
    9.9337   -0.2708   21.5528 C   0  0  0  0  0  0  0  0  0  0  0  0
   12.6563   -1.0218   20.1979 C   0  0  0  0  0  0  0  0  0  0  0  0
   10.9193   -0.7431   25.7871 C   0  0  0  0  0  0  0  0  0  0  0  0
    8.3559   -4.5917   23.6052 C   0  0  0  0  0  0  0  0  0  0  0  0
    5.8840   -4.2523   23.2725 C   0  0  0  0  0  0  0  0  0  0  0  0
    6.8685   -4.1786   25.5543 C   0  0  0  0  0  0  0  0  0  0  0  0
   11.7529    0.2522   24.9864 C   0  0  0  0  0  0  0  0  0  0  0  0
    8.8664    0.7899   21.2951 C   0  0  2  0  0  0  0  0  0  0  0  0
    7.1198   -3.7962   24.0780 C   0  0  0  0  0  0  0  0  0  0  0  0
    7.9701    0.0742   17.6802 N   0  0  0  0  0  0  0  0  0  0  0  0
    7.5482   -0.1848   24.5900 N   0  0  0  0  0  0  0  0  0  0  0  0
   11.0415    0.2741   22.1973 N   0  0  0  0  0  0  0  0  0  0  0  0
    7.9758    0.9003   22.5054 N   0  0  0  0  0  0  0  0  0  0  0  0
    6.7678    2.4589   23.8031 O   0  0  0  0  0  0  0  0  0  0  0  0
    9.7811   -1.4377   21.2015 O   0  0  0  0  0  0  0  0  0  0  0  0
    7.3171   -1.5041   24.9605 O   0  0  0  0  0  0  0  0  0  0  0  0
   15.4573   -2.2256   23.6961 H   0  0  0  0  0  0  0  0  0  0  0  0
    4.8758   -0.1812   19.0430 H   0  0  0  0  0  0  0  0  0  0  0  0
   14.8149   -2.1862   21.3091 H   0  0  0  0  0  0  0  0  0  0  0  0
   14.0455   -1.1022   25.3853 H   0  0  0  0  0  0  0  0  0  0  0  0
    6.1619    0.3459   21.1044 H   0  0  0  0  0  0  0  0  0  0  0  0
    7.7005   -1.8616   21.7279 H   0  0  0  0  0  0  0  0  0  0  0  0
    6.1152   -0.3378   16.8777 H   0  0  0  0  0  0  0  0  0  0  0  0
    9.7113    0.5022   18.6898 H   0  0  0  0  0  0  0  0  0  0  0  0
    8.3010    5.4101   21.7842 H   0  0  0  0  0  0  0  0  0  0  0  0
    7.9017    4.8147   23.4943 H   0  0  0  0  0  0  0  0  0  0  0  0
    8.0236    3.1751   20.8869 H   0  0  0  0  0  0  0  0  0  0  0  0
   12.0284   -1.8879   19.9606 H   0  0  0  0  0  0  0  0  0  0  0  0
   12.1092   -0.1091   19.9331 H   0  0  0  0  0  0  0  0  0  0  0  0
   13.5512   -1.0536   19.5647 H   0  0  0  0  0  0  0  0  0  0  0  0
   10.2705   -1.3320   25.1298 H   0  0  0  0  0  0  0  0  0  0  0  0
   10.2850   -0.2210   26.5103 H   0  0  0  0  0  0  0  0  0  0  0  0
   11.5601   -1.4395   26.3385 H   0  0  0  0  0  0  0  0  0  0  0  0
    8.2130   -5.6686   23.7525 H   0  0  0  0  0  0  0  0  0  0  0  0
    8.5647   -4.4394   22.5406 H   0  0  0  0  0  0  0  0  0  0  0  0
    9.2526   -4.2948   24.1621 H   0  0  0  0  0  0  0  0  0  0  0  0
    5.6767   -5.3203   23.4004 H   0  0  0  0  0  0  0  0  0  0  0  0
    4.9843   -3.7115   23.5887 H   0  0  0  0  0  0  0  0  0  0  0  0
    6.0230   -4.0703   22.2002 H   0  0  0  0  0  0  0  0  0  0  0  0
    6.7059   -5.2580   25.6607 H   0  0  0  0  0  0  0  0  0  0  0  0
    7.7228   -3.9180   26.1899 H   0  0  0  0  0  0  0  0  0  0  0  0
    5.9792   -3.6782   25.9550 H   0  0  0  0  0  0  0  0  0  0  0  0
   12.3917    0.8261   25.6751 H   0  0  0  0  0  0  0  0  0  0  0  0
   11.0843    0.9926   24.5208 H   0  0  0  0  0  0  0  0  0  0  0  0
    9.3634    1.7603   21.1743 H   0  0  0  0  0  0  0  0  0  0  0  0
   10.9964    1.2697   22.4042 H   0  0  0  0  0  0  0  0  0  0  0  0
  1  3  1  0  0  0  0
  1  4  2  0  0  0  0
  2  5  2  0  0  0  0
  2  7  1  0  0  0  0
  3 10  2  0  0  0  0
  4 11  1  0  0  0  0
  5  9  1  0  0  0  0
  6 13  2  0  0  0  0
  6 14  1  0  0  0  0
  7 27  2  0  0  0  0
  8  9  2  0  0  0  0
  8 27  1  0  0  0  0
  9 25  1  0  0  0  0
 10 12  1  0  0  0  0
 10 19  1  0  0  0  0
 11 12  2  0  0  0  0
 11 24  1  0  0  0  0
 12 29  1  0  0  0  0
 13 26  1  0  0  0  0
 13 33  1  0  0  0  0
 14 28  2  0  0  0  0
 14 30  1  0  0  0  0
 15 16  2  0  0  0  0
 16 17  1  0  0  0  0
 17 30  1  0  0  0  0
 17 31  2  0  0  0  0
 18 25  1  0  0  0  0
 18 29  1  0  0  0  0
 18 32  2  0  0  0  0
 20 24  1  0  0  0  0
 21 26  1  0  0  0  0
 22 26  1  0  0  0  0
 23 26  1  0  0  0  0
 25 30  1  0  0  0  0
 28 33  1  0  0  0  0
  1 34  1  0  0  0  0
  2 35  1  0  0  0  0
  3 36  1  0  0  0  0
  4 37  1  0  0  0  0
  5 38  1  0  0  0  0
  6 39  1  0  0  0  0
  7 40  1  0  0  0  0
  8 41  1  0  0  0  0
 15 42  1  0  0  0  0
 15 43  1  0  0  0  0
 16 44  1  0  0  0  0
 19 45  1  0  0  0  0
 19 46  1  0  0  0  0
 19 47  1  0  0  0  0
 20 48  1  0  0  0  0
 20 49  1  0  0  0  0
 20 50  1  0  0  0  0
 21 51  1  0  0  0  0
 21 52  1  0  0  0  0
 21 53  1  0  0  0  0
 22 54  1  0  0  0  0
 22 55  1  0  0  0  0
 22 56  1  0  0  0  0
 23 57  1  0  0  0  0
 23 58  1  0  0  0  0
 23 59  1  0  0  0  0
 24 60  1  0  0  0  0
 24 61  1  0  0  0  0
 25 62  1  0  0  0  0
 29 63  1  0  0  0  0
M  END
> <series>
3-aminopyridine-like

> <r_inhibition_at_20_uM>
1.4898559085

> <r_inhibition_at_50_uM>

> <r_IC50>

> <f_inhibition_at_20_uM>
7.333488000000001

> <f_inhibition_at_50_uM>
21.050805

> <f_avg_IC50>

> <f_avg_pIC50>

> <ASSAYED>
True

> <Hybrid2>
-9.738724

> <docked_fragment>
x0678

> <Mpro-_dock>
-7.248849

> <site>
active-noncovalent

$$$$
BEN-DND-362d364a-10
  -OEChem-07042000473D

 48 49  0     1  0  0  0  0  0999 V2000
    5.5687    0.6222   19.2537 C   0  0  0  0  0  0  0  0  0  0  0  0
    6.5395    0.7589   20.2397 C   0  0  0  0  0  0  0  0  0  0  0  0
    5.9883    0.3226   17.9676 C   0  0  0  0  0  0  0  0  0  0  0  0
    8.1973    0.2957   18.5986 C   0  0  0  0  0  0  0  0  0  0  0  0
    7.8812    0.5942   19.9142 C   0  0  0  0  0  0  0  0  0  0  0  0
   10.2659    0.5927   20.7220 C   0  0  0  0  0  0  0  0  0  0  0  0
   13.7466   -0.7270   24.1070 C   0  0  0  0  0  0  0  0  0  0  0  0
   13.5832   -0.9128   22.6038 C   0  0  0  0  0  0  0  0  0  0  0  0
   12.6716    0.1947   24.6736 C   0  0  0  0  0  0  0  0  0  0  0  0
   12.1855   -1.3880   22.2393 C   0  0  0  0  0  0  0  0  0  0  0  0
   11.2484   -0.2388   24.3118 C   0  0  2  0  0  0  0  0  0  0  0  0
    6.9573   -3.7855   23.6851 C   0  0  0  0  0  0  0  0  0  0  0  0
   10.9881    0.8152   22.0315 C   0  0  0  0  0  0  0  0  0  0  0  0
   10.7940   -1.4937   25.0564 C   0  0  0  0  0  0  0  0  0  0  0  0
    9.2802   -1.6509   25.0658 C   0  0  0  0  0  0  0  0  0  0  0  0
    7.2822    0.1552   17.6134 N   0  0  0  0  0  0  0  0  0  0  0  0
    8.8918    0.7274   20.8958 N   0  0  0  0  0  0  0  0  0  0  0  0
    8.7325   -1.7694   23.7429 N   0  0  0  0  0  0  0  0  0  0  0  0
   11.1295   -0.4688   22.8113 N   0  3  1  0  0  0  0  0  0  0  0  0
   10.8665    0.3363   19.6837 O   0  0  0  0  0  0  0  0  0  0  0  0
    9.5341   -4.2270   23.5603 O   0  0  0  0  0  0  0  0  0  0  0  0
    8.3768   -3.1732   21.5838 O   0  0  0  0  0  0  0  0  0  0  0  0
    8.5391   -3.3231   23.0172 S   0  0  0  0  0  0  0  0  0  0  0  0
    4.5169    0.7462   19.4847 H   0  0  0  0  0  0  0  0  0  0  0  0
    6.2397    0.9937   21.2577 H   0  0  0  0  0  0  0  0  0  0  0  0
    5.2702    0.2065   17.1626 H   0  0  0  0  0  0  0  0  0  0  0  0
    9.2269    0.1553   18.2833 H   0  0  0  0  0  0  0  0  0  0  0  0
   13.7001   -1.7024   24.6083 H   0  0  0  0  0  0  0  0  0  0  0  0
   14.7396   -0.3080   24.3209 H   0  0  0  0  0  0  0  0  0  0  0  0
   13.7901    0.0373   22.0942 H   0  0  0  0  0  0  0  0  0  0  0  0
   14.3274   -1.6331   22.2363 H   0  0  0  0  0  0  0  0  0  0  0  0
   12.7828    0.2473   25.7696 H   0  0  0  0  0  0  0  0  0  0  0  0
   12.8526    1.2160   24.3026 H   0  0  0  0  0  0  0  0  0  0  0  0
   12.0392   -1.4236   21.1485 H   0  0  0  0  0  0  0  0  0  0  0  0
   12.0091   -2.3924   22.6525 H   0  0  0  0  0  0  0  0  0  0  0  0
   10.5279    0.5921   24.5384 H   0  0  0  0  0  0  0  0  0  0  0  0
    6.6976   -4.7739   23.3028 H   0  0  0  0  0  0  0  0  0  0  0  0
    7.0353   -3.8048   24.7732 H   0  0  0  0  0  0  0  0  0  0  0  0
    6.2201   -3.0466   23.3673 H   0  0  0  0  0  0  0  0  0  0  0  0
   10.4309    1.5119   22.6643 H   0  0  0  0  0  0  0  0  0  0  0  0
   11.9986    1.1911   21.8484 H   0  0  0  0  0  0  0  0  0  0  0  0
   11.1536   -1.4317   26.0883 H   0  0  0  0  0  0  0  0  0  0  0  0
   11.2643   -2.3689   24.5967 H   0  0  0  0  0  0  0  0  0  0  0  0
    9.0049   -2.5605   25.6086 H   0  0  0  0  0  0  0  0  0  0  0  0
    8.7936   -0.8014   25.5553 H   0  0  0  0  0  0  0  0  0  0  0  0
    8.5616    0.9477   21.8332 H   0  0  0  0  0  0  0  0  0  0  0  0
    7.9869   -1.0815   23.4963 H   0  0  0  0  0  0  0  0  0  0  0  0
   10.2018   -0.9673   22.6753 H   0  0  0  0  0  0  0  0  0  0  0  0
  1  2  2  0  0  0  0
  1  3  1  0  0  0  0
  2  5  1  0  0  0  0
  3 16  2  0  0  0  0
  4  5  2  0  0  0  0
  4 16  1  0  0  0  0
  5 17  1  0  0  0  0
  6 13  1  0  0  0  0
  6 17  1  0  0  0  0
  6 20  2  0  0  0  0
  7  8  1  0  0  0  0
  7  9  1  0  0  0  0
  8 10  1  0  0  0  0
  9 11  1  0  0  0  0
 10 19  1  0  0  0  0
 11 14  1  0  0  0  0
 11 19  1  0  0  0  0
 12 23  1  0  0  0  0
 13 19  1  0  0  0  0
 14 15  1  0  0  0  0
 15 18  1  0  0  0  0
 18 23  1  0  0  0  0
 21 23  2  0  0  0  0
 22 23  2  0  0  0  0
  1 24  1  0  0  0  0
  2 25  1  0  0  0  0
  3 26  1  0  0  0  0
  4 27  1  0  0  0  0
  7 28  1  0  0  0  0
  7 29  1  0  0  0  0
  8 30  1  0  0  0  0
  8 31  1  0  0  0  0
  9 32  1  0  0  0  0
  9 33  1  0  0  0  0
 10 34  1  0  0  0  0
 10 35  1  0  0  0  0
 11 36  1  0  0  0  0
 12 37  1  0  0  0  0
 12 38  1  0  0  0  0
 12 39  1  0  0  0  0
 13 40  1  0  0  0  0
 13 41  1  0  0  0  0
 14 42  1  0  0  0  0
 14 43  1  0  0  0  0
 15 44  1  0  0  0  0
 15 45  1  0  0  0  0
 17 46  1  0  0  0  0
 18 47  1  0  0  0  0
 19 48  1  0  0  0  0
M  CHG  1  19   1
M  END
> <series>
3-aminopyridine-like

> <r_inhibition_at_20_uM>
-1.62

> <r_inhibition_at_50_uM>
-1.205

> <r_IC50>

> <f_inhibition_at_20_uM>

> <f_inhibition_at_50_uM>
48.92015

> <f_avg_IC50>

> <f_avg_pIC50>

> <ASSAYED>
True

> <Hybrid2>
-9.718414

> <docked_fragment>
x0678

> <Mpro-_dock>
-4.654175

> <site>
active-noncovalent

$$$$
JAN-GHE-83b26c96-13
  -OEChem-07042000473D

 31 32  0     0  0  0  0  0  0999 V2000
   14.0111   -0.6605   24.1167 C   0  0  0  0  0  0  0  0  0  0  0  0
   13.1486    0.3484   23.6881 C   0  0  0  0  0  0  0  0  0  0  0  0
   13.7822   -1.9825   23.7352 C   0  0  0  0  0  0  0  0  0  0  0  0
    5.8975    0.3341   19.3528 C   0  0  0  0  0  0  0  0  0  0  0  0
   11.8281   -1.2867   22.4965 C   0  0  0  0  0  0  0  0  0  0  0  0
    6.4240    0.1279   18.0879 C   0  0  0  0  0  0  0  0  0  0  0  0
    8.5791    0.3589   18.8495 C   0  0  0  0  0  0  0  0  0  0  0  0
   12.0571    0.0354   22.8781 C   0  0  0  0  0  0  0  0  0  0  0  0
    6.7856    0.5618   20.3982 C   0  0  0  0  0  0  0  0  0  0  0  0
    8.1536    0.5761   20.1502 C   0  0  0  0  0  0  0  0  0  0  0  0
   12.6907   -2.2956   22.9251 C   0  0  0  0  0  0  0  0  0  0  0  0
   10.4847    0.8420   21.0670 C   0  0  0  0  0  0  0  0  0  0  0  0
    6.2453    0.7878   21.7722 C   0  0  0  0  0  0  0  0  0  0  0  0
   11.1350    1.1150   22.4208 C   0  0  0  0  0  0  0  0  0  0  0  0
    7.7466    0.1344   17.8083 N   0  0  0  0  0  0  0  0  0  0  0  0
    9.0972    0.8031   21.1802 N   0  0  0  0  0  0  0  0  0  0  0  0
   11.1517    0.6847   20.0494 O   0  0  0  0  0  0  0  0  0  0  0  0
   12.3512   -4.2648   22.3554 I   0  0  0  0  0  0  0  0  0  0  0  0
   14.8612   -0.4164   24.7472 H   0  0  0  0  0  0  0  0  0  0  0  0
   13.3346    1.3754   23.9907 H   0  0  0  0  0  0  0  0  0  0  0  0
   14.4670   -2.7530   24.0804 H   0  0  0  0  0  0  0  0  0  0  0  0
    4.8248    0.3169   19.5128 H   0  0  0  0  0  0  0  0  0  0  0  0
   10.9735   -1.5191   21.8646 H   0  0  0  0  0  0  0  0  0  0  0  0
    5.7736   -0.0538   17.2385 H   0  0  0  0  0  0  0  0  0  0  0  0
    9.6344    0.3576   18.5930 H   0  0  0  0  0  0  0  0  0  0  0  0
    6.1514   -0.1655   22.3048 H   0  0  0  0  0  0  0  0  0  0  0  0
    6.9009    1.4492   22.3519 H   0  0  0  0  0  0  0  0  0  0  0  0
    5.2592    1.2672   21.7363 H   0  0  0  0  0  0  0  0  0  0  0  0
   10.3316    1.2707   23.1595 H   0  0  0  0  0  0  0  0  0  0  0  0
   11.6740    2.0743   22.3542 H   0  0  0  0  0  0  0  0  0  0  0  0
    8.7176    0.9556   22.1123 H   0  0  0  0  0  0  0  0  0  0  0  0
  1  2  2  0  0  0  0
  1  3  1  0  0  0  0
  2  8  1  0  0  0  0
  3 11  2  0  0  0  0
  4  6  2  0  0  0  0
  4  9  1  0  0  0  0
  5  8  2  0  0  0  0
  5 11  1  0  0  0  0
  6 15  1  0  0  0  0
  7 10  1  0  0  0  0
  7 15  2  0  0  0  0
  8 14  1  0  0  0  0
  9 10  2  0  0  0  0
  9 13  1  0  0  0  0
 10 16  1  0  0  0  0
 11 18  1  0  0  0  0
 12 14  1  0  0  0  0
 12 16  1  0  0  0  0
 12 17  2  0  0  0  0
  1 19  1  0  0  0  0
  2 20  1  0  0  0  0
  3 21  1  0  0  0  0
  4 22  1  0  0  0  0
  5 23  1  0  0  0  0
  6 24  1  0  0  0  0
  7 25  1  0  0  0  0
 13 26  1  0  0  0  0
 13 27  1  0  0  0  0
 13 28  1  0  0  0  0
 14 29  1  0  0  0  0
 14 30  1  0  0  0  0
 16 31  1  0  0  0  0
M  END
> <series>
3-aminopyridine-like

> <r_inhibition_at_20_uM>

> <r_inhibition_at_50_uM>
64.32450713350744

> <r_IC50>

> <f_inhibition_at_20_uM>
17.41274

> <f_inhibition_at_50_uM>
39.673875

> <f_avg_IC50>

> <f_avg_pIC50>

> <ASSAYED>
True

> <Hybrid2>
-9.714088

> <docked_fragment>
x0678

> <Mpro-_dock>
-6.401519

> <site>
active-noncovalent

$$$$
LON-WEI-b8d98729-9
  -OEChem-07042000473D

 48 51  0     1  0  0  0  0  0999 V2000
    6.0042    0.7588   19.4511 C   0  0  0  0  0  0  0  0  0  0  0  0
    6.8188    0.2289   20.4456 C   0  0  0  0  0  0  0  0  0  0  0  0
   13.5100    0.3357   22.4693 C   0  0  0  0  0  0  0  0  0  0  0  0
   12.2360    0.6913   22.0169 C   0  0  0  0  0  0  0  0  0  0  0  0
    7.0457   -5.0445   22.5429 C   0  0  0  0  0  0  0  0  0  0  0  0
    6.6865   -3.2691   24.1416 C   0  0  0  0  0  0  0  0  0  0  0  0
    6.3475   -5.9275   23.3666 C   0  0  0  0  0  0  0  0  0  0  0  0
    5.9882   -4.1520   24.9653 C   0  0  0  0  0  0  0  0  0  0  0  0
   11.3309   -1.4220   22.7874 C   0  0  0  0  0  0  0  0  0  0  0  0
    6.4851    0.7611   18.1517 C   0  0  0  0  0  0  0  0  0  0  0  0
    8.4600   -0.2268   18.7858 C   0  0  0  0  0  0  0  0  0  0  0  0
   14.7226   -2.5970   24.0975 C   0  0  0  0  0  0  0  0  0  0  0  0
    8.0717   -0.2753   20.1149 C   0  0  0  0  0  0  0  0  0  0  0  0
   13.7082   -0.9158   23.0918 C   0  0  0  0  0  0  0  0  0  0  0  0
    7.2153   -3.7153   22.9304 C   0  0  0  0  0  0  0  0  0  0  0  0
   11.1620   -0.1777   22.1749 C   0  0  0  0  0  0  0  0  0  0  0  0
   12.6132   -1.7726   23.2396 C   0  0  0  0  0  0  0  0  0  0  0  0
    5.8188   -5.4813   24.5778 C   0  0  0  0  0  0  0  0  0  0  0  0
   10.1157    3.7962   22.4310 C   0  0  0  0  0  0  0  0  0  0  0  0
    9.9645    2.4964   22.7041 C   0  0  0  0  0  0  0  0  0  0  0  0
    9.4491    1.5627   21.6601 C   0  0  0  0  0  0  0  0  0  0  0  0
    8.1844   -1.4707   22.3232 C   0  0  0  0  0  0  0  0  0  0  0  0
    8.9811   -0.8589   21.1736 C   0  0  2  0  0  0  0  0  0  0  0  0
    7.6963    0.2802   17.7921 N   0  0  0  0  0  0  0  0  0  0  0  0
   14.9090   -1.4018   23.5882 N   0  0  0  0  0  0  0  0  0  0  0  0
    7.9233   -2.8194   22.0946 N   0  0  0  0  0  0  0  0  0  0  0  0
    9.8976    0.1959   21.7161 N   0  0  0  0  0  0  0  0  0  0  0  0
    8.6941    2.0008   20.7917 O   0  0  0  0  0  0  0  0  0  0  0  0
    7.8368   -0.8032   23.2937 O   0  0  0  0  0  0  0  0  0  0  0  0
   13.1305   -3.2181   24.0242 S   0  0  0  0  0  0  0  0  0  0  0  0
    4.8727   -6.6777   25.6937 Br  0  0  0  0  0  0  0  0  0  0  0  0
    5.0237    1.1571   19.6857 H   0  0  0  0  0  0  0  0  0  0  0  0
    6.4694    0.2129   21.4744 H   0  0  0  0  0  0  0  0  0  0  0  0
   14.3418    1.0227   22.3416 H   0  0  0  0  0  0  0  0  0  0  0  0
   12.0982    1.6584   21.5389 H   0  0  0  0  0  0  0  0  0  0  0  0
    7.4538   -5.4028   21.6014 H   0  0  0  0  0  0  0  0  0  0  0  0
    6.8127   -2.2354   24.4532 H   0  0  0  0  0  0  0  0  0  0  0  0
    6.2239   -6.9599   23.0504 H   0  0  0  0  0  0  0  0  0  0  0  0
    5.5824   -3.7890   25.9059 H   0  0  0  0  0  0  0  0  0  0  0  0
   10.4935   -2.1029   22.9130 H   0  0  0  0  0  0  0  0  0  0  0  0
    5.8881    1.1637   17.3400 H   0  0  0  0  0  0  0  0  0  0  0  0
    9.4265   -0.6054   18.4677 H   0  0  0  0  0  0  0  0  0  0  0  0
   15.5297   -3.1634   24.5415 H   0  0  0  0  0  0  0  0  0  0  0  0
   10.5126    4.4667   23.1860 H   0  0  0  0  0  0  0  0  0  0  0  0
    9.8491    4.2254   21.4714 H   0  0  0  0  0  0  0  0  0  0  0  0
   10.2586    2.1051   23.6710 H   0  0  0  0  0  0  0  0  0  0  0  0
    9.6157   -1.6398   20.7368 H   0  0  0  0  0  0  0  0  0  0  0  0
    8.2838   -3.2059   21.2247 H   0  0  0  0  0  0  0  0  0  0  0  0
  1  2  2  0  0  0  0
  1 10  1  0  0  0  0
  2 13  1  0  0  0  0
  3  4  2  0  0  0  0
  3 14  1  0  0  0  0
  4 16  1  0  0  0  0
  5  7  2  0  0  0  0
  5 15  1  0  0  0  0
  6  8  1  0  0  0  0
  6 15  2  0  0  0  0
  7 18  1  0  0  0  0
  8 18  2  0  0  0  0
  9 16  2  0  0  0  0
  9 17  1  0  0  0  0
 10 24  2  0  0  0  0
 11 13  2  0  0  0  0
 11 24  1  0  0  0  0
 12 25  2  0  0  0  0
 12 30  1  0  0  0  0
 13 23  1  0  0  0  0
 14 17  2  0  0  0  0
 14 25  1  0  0  0  0
 15 26  1  0  0  0  0
 16 27  1  0  0  0  0
 17 30  1  0  0  0  0
 18 31  1  0  0  0  0
 19 20  2  0  0  0  0
 20 21  1  0  0  0  0
 21 27  1  0  0  0  0
 21 28  2  0  0  0  0
 22 23  1  0  0  0  0
 22 26  1  0  0  0  0
 22 29  2  0  0  0  0
 23 27  1  0  0  0  0
  1 32  1  0  0  0  0
  2 33  1  0  0  0  0
  3 34  1  0  0  0  0
  4 35  1  0  0  0  0
  5 36  1  0  0  0  0
  6 37  1  0  0  0  0
  7 38  1  0  0  0  0
  8 39  1  0  0  0  0
  9 40  1  0  0  0  0
 10 41  1  0  0  0  0
 11 42  1  0  0  0  0
 12 43  1  0  0  0  0
 19 44  1  0  0  0  0
 19 45  1  0  0  0  0
 20 46  1  0  0  0  0
 23 47  1  0  0  0  0
 26 48  1  0  0  0  0
M  END
> <series>
3-aminopyridine-like

> <r_inhibition_at_20_uM>
3.05427925

> <r_inhibition_at_50_uM>

> <r_IC50>

> <f_inhibition_at_20_uM>
17.384325

> <f_inhibition_at_50_uM>
34.855450000000005

> <f_avg_IC50>

> <f_avg_pIC50>

> <ASSAYED>
True

> <Hybrid2>
-9.680697

> <docked_fragment>
x0678

> <Mpro-_dock>
-5.47555

> <site>
active-noncovalent

$$$$
LON-WEI-b8d98729-41
  -OEChem-07042000473D

 49 51  0     1  0  0  0  0  0999 V2000
    5.7163   -3.8627   25.1855 C   0  0  0  0  0  0  0  0  0  0  0  0
    5.4217   -5.1936   24.8900 C   0  0  0  0  0  0  0  0  0  0  0  0
    6.1138    0.7163   19.4442 C   0  0  0  0  0  0  0  0  0  0  0  0
    6.8826    0.1684   20.4651 C   0  0  0  0  0  0  0  0  0  0  0  0
   12.4575   -2.3122   23.3559 C   0  0  0  0  0  0  0  0  0  0  0  0
   13.5822   -0.3430   22.5226 C   0  0  0  0  0  0  0  0  0  0  0  0
    6.4865   -3.1061   24.3023 C   0  0  0  0  0  0  0  0  0  0  0  0
   11.2415   -1.8170   22.8850 C   0  0  0  0  0  0  0  0  0  0  0  0
   12.3662    0.1522   22.0516 C   0  0  0  0  0  0  0  0  0  0  0  0
    5.8974   -5.7681   23.7113 C   0  0  0  0  0  0  0  0  0  0  0  0
    6.5952    0.6229   18.1483 C   0  0  0  0  0  0  0  0  0  0  0  0
    8.4848   -0.4888   18.8350 C   0  0  0  0  0  0  0  0  0  0  0  0
   13.6278   -1.5751   23.1748 C   0  0  0  0  0  0  0  0  0  0  0  0
    8.0921   -0.4474   20.1631 C   0  0  0  0  0  0  0  0  0  0  0  0
   11.1958   -0.5849   22.2328 C   0  0  0  0  0  0  0  0  0  0  0  0
    6.9622   -3.6806   23.1236 C   0  0  0  0  0  0  0  0  0  0  0  0
    6.6676   -5.0116   22.8281 C   0  0  0  0  0  0  0  0  0  0  0  0
   10.6849    3.4093   22.4633 C   0  0  0  0  0  0  0  0  0  0  0  0
   10.3273    2.1472   22.7208 C   0  0  0  0  0  0  0  0  0  0  0  0
    9.6833    1.3161   21.6616 C   0  0  0  0  0  0  0  0  0  0  0  0
    8.1068   -1.5488   22.4225 C   0  0  0  0  0  0  0  0  0  0  0  0
    8.9510   -1.0535   21.2509 C   0  0  2  0  0  0  0  0  0  0  0  0
   14.9279   -2.1046   23.6784 C   0  0  0  0  0  0  0  0  0  0  0  0
    7.7650    0.0324   17.8162 N   0  0  0  0  0  0  0  0  0  0  0  0
    7.7401   -2.8814   22.2524 N   0  0  0  0  0  0  0  0  0  0  0  0
    9.9297   -0.0691   21.7420 N   0  0  0  0  0  0  0  0  0  0  0  0
    9.0043    1.8744   20.7994 O   0  0  0  0  0  0  0  0  0  0  0  0
    7.8118   -0.8135   23.3609 O   0  0  0  0  0  0  0  0  0  0  0  0
   14.8226   -3.3190   24.2949 F   0  0  0  0  0  0  0  0  0  0  0  0
   15.8622   -2.2830   22.6982 F   0  0  0  0  0  0  0  0  0  0  0  0
   15.5118   -1.2785   24.5947 F   0  0  0  0  0  0  0  0  0  0  0  0
    7.2919   -5.8449   21.2408 Br  0  0  0  0  0  0  0  0  0  0  0  0
    5.3460   -3.4156   26.1035 H   0  0  0  0  0  0  0  0  0  0  0  0
    4.8218   -5.7823   25.5779 H   0  0  0  0  0  0  0  0  0  0  0  0
    5.1676    1.2009   19.6562 H   0  0  0  0  0  0  0  0  0  0  0  0
    6.5316    0.2257   21.4919 H   0  0  0  0  0  0  0  0  0  0  0  0
   12.4835   -3.2721   23.8650 H   0  0  0  0  0  0  0  0  0  0  0  0
   14.4890    0.2383   22.3778 H   0  0  0  0  0  0  0  0  0  0  0  0
    6.7086   -2.0698   24.5449 H   0  0  0  0  0  0  0  0  0  0  0  0
   10.3357   -2.4001   23.0314 H   0  0  0  0  0  0  0  0  0  0  0  0
   12.3418    1.1141   21.5457 H   0  0  0  0  0  0  0  0  0  0  0  0
    5.6572   -6.8066   23.4984 H   0  0  0  0  0  0  0  0  0  0  0  0
    6.0330    1.0349   17.3167 H   0  0  0  0  0  0  0  0  0  0  0  0
    9.4187   -0.9563   18.5387 H   0  0  0  0  0  0  0  0  0  0  0  0
   11.1738    4.0018   23.2295 H   0  0  0  0  0  0  0  0  0  0  0  0
   10.5006    3.8839   21.5058 H   0  0  0  0  0  0  0  0  0  0  0  0
   10.5447    1.7055   23.6864 H   0  0  0  0  0  0  0  0  0  0  0  0
    9.5224   -1.9007   20.8521 H   0  0  0  0  0  0  0  0  0  0  0  0
    8.0700   -3.3335   21.4022 H   0  0  0  0  0  0  0  0  0  0  0  0
  1  2  1  0  0  0  0
  1  7  2  0  0  0  0
  2 10  2  0  0  0  0
  3  4  2  0  0  0  0
  3 11  1  0  0  0  0
  4 14  1  0  0  0  0
  5  8  2  0  0  0  0
  5 13  1  0  0  0  0
  6  9  1  0  0  0  0
  6 13  2  0  0  0  0
  7 16  1  0  0  0  0
  8 15  1  0  0  0  0
  9 15  2  0  0  0  0
 10 17  1  0  0  0  0
 11 24  2  0  0  0  0
 12 14  2  0  0  0  0
 12 24  1  0  0  0  0
 13 23  1  0  0  0  0
 14 22  1  0  0  0  0
 15 26  1  0  0  0  0
 16 17  2  0  0  0  0
 16 25  1  0  0  0  0
 17 32  1  0  0  0  0
 18 19  2  0  0  0  0
 19 20  1  0  0  0  0
 20 26  1  0  0  0  0
 20 27  2  0  0  0  0
 21 22  1  0  0  0  0
 21 25  1  0  0  0  0
 21 28  2  0  0  0  0
 22 26  1  0  0  0  0
 23 29  1  0  0  0  0
 23 30  1  0  0  0  0
 23 31  1  0  0  0  0
  1 33  1  0  0  0  0
  2 34  1  0  0  0  0
  3 35  1  0  0  0  0
  4 36  1  0  0  0  0
  5 37  1  0  0  0  0
  6 38  1  0  0  0  0
  7 39  1  0  0  0  0
  8 40  1  0  0  0  0
  9 41  1  0  0  0  0
 10 42  1  0  0  0  0
 11 43  1  0  0  0  0
 12 44  1  0  0  0  0
 18 45  1  0  0  0  0
 18 46  1  0  0  0  0
 19 47  1  0  0  0  0
 22 48  1  0  0  0  0
 25 49  1  0  0  0  0
M  END
> <series>
3-aminopyridine-like

> <r_inhibition_at_20_uM>
9.599967044

> <r_inhibition_at_50_uM>

> <r_IC50>

> <f_inhibition_at_20_uM>
15.601375

> <f_inhibition_at_50_uM>
22.04782

> <f_avg_IC50>

> <f_avg_pIC50>

> <ASSAYED>
True

> <Hybrid2>
-9.680184

> <docked_fragment>
x0678

> <Mpro-_dock>
-7.318029

> <site>
active-noncovalent

$$$$
DAR-DIA-23aa0b97-13
  -OEChem-07042000473D

 29 30  0     0  0  0  0  0  0999 V2000
   14.1747   -0.2285   24.1266 C   0  0  0  0  0  0  0  0  0  0  0  0
   13.0207    0.3468   23.5948 C   0  0  0  0  0  0  0  0  0  0  0  0
   14.4194   -1.5906   23.9515 C   0  0  0  0  0  0  0  0  0  0  0  0
    6.8532    1.0060   20.2332 C   0  0  0  0  0  0  0  0  0  0  0  0
   12.3559   -1.8020   22.7128 C   0  0  0  0  0  0  0  0  0  0  0  0
    6.3327    0.4814   17.9726 C   0  0  0  0  0  0  0  0  0  0  0  0
    8.4691    0.1140   18.7334 C   0  0  0  0  0  0  0  0  0  0  0  0
   12.1113   -0.4400   22.8879 C   0  0  0  0  0  0  0  0  0  0  0  0
    5.9185    0.9608   19.2048 C   0  0  0  0  0  0  0  0  0  0  0  0
    8.1551    0.5764   20.0012 C   0  0  0  0  0  0  0  0  0  0  0  0
   13.5100   -2.3773   23.2447 C   0  0  0  0  0  0  0  0  0  0  0  0
   10.2319   -0.2408   21.2006 C   0  0  0  0  0  0  0  0  0  0  0  0
    7.5884    0.0553   17.7094 N   0  0  0  0  0  0  0  0  0  0  0  0
    4.5963    1.3882   19.4089 N   0  0  0  0  0  0  0  0  0  0  0  0
   10.9569    0.1365   22.3573 N   0  0  0  0  0  0  0  0  0  0  0  0
    9.1285    0.6102   21.0276 N   0  0  0  0  0  0  0  0  0  0  0  0
   10.5300   -1.1748   20.4632 O   0  0  0  0  0  0  0  0  0  0  0  0
   13.8117   -4.0579   23.0285 Cl  0  0  0  0  0  0  0  0  0  0  0  0
   14.8829    0.3842   24.6771 H   0  0  0  0  0  0  0  0  0  0  0  0
   12.8406    1.4094   23.7377 H   0  0  0  0  0  0  0  0  0  0  0  0
   15.3230   -2.0247   24.3714 H   0  0  0  0  0  0  0  0  0  0  0  0
    6.5665    1.3778   21.2143 H   0  0  0  0  0  0  0  0  0  0  0  0
   11.6447   -2.4125   22.1607 H   0  0  0  0  0  0  0  0  0  0  0  0
    5.6476    0.4207   17.1322 H   0  0  0  0  0  0  0  0  0  0  0  0
    9.4685   -0.2352   18.4911 H   0  0  0  0  0  0  0  0  0  0  0  0
    4.3093    1.6869   20.3222 H   0  0  0  0  0  0  0  0  0  0  0  0
    3.9293    1.3016   18.6650 H   0  0  0  0  0  0  0  0  0  0  0  0
   10.5837    0.9402   22.8734 H   0  0  0  0  0  0  0  0  0  0  0  0
    9.0087    1.3437   21.7216 H   0  0  0  0  0  0  0  0  0  0  0  0
  1  2  2  0  0  0  0
  1  3  1  0  0  0  0
  2  8  1  0  0  0  0
  3 11  2  0  0  0  0
  4  9  2  0  0  0  0
  4 10  1  0  0  0  0
  5  8  2  0  0  0  0
  5 11  1  0  0  0  0
  6  9  1  0  0  0  0
  6 13  2  0  0  0  0
  7 10  2  0  0  0  0
  7 13  1  0  0  0  0
  8 15  1  0  0  0  0
  9 14  1  0  0  0  0
 10 16  1  0  0  0  0
 11 18  1  0  0  0  0
 12 15  1  0  0  0  0
 12 16  1  0  0  0  0
 12 17  2  0  0  0  0
  1 19  1  0  0  0  0
  2 20  1  0  0  0  0
  3 21  1  0  0  0  0
  4 22  1  0  0  0  0
  5 23  1  0  0  0  0
  6 24  1  0  0  0  0
  7 25  1  0  0  0  0
 14 26  1  0  0  0  0
 14 27  1  0  0  0  0
 15 28  1  0  0  0  0
 16 29  1  0  0  0  0
M  END
> <series>
3-aminopyridine-like

> <r_inhibition_at_20_uM>
15.185

> <r_inhibition_at_50_uM>
39.42

> <r_IC50>

> <f_inhibition_at_20_uM>

> <f_inhibition_at_50_uM>
14.95938

> <f_avg_IC50>

> <f_avg_pIC50>

> <ASSAYED>
True

> <Hybrid2>
-9.678142

> <docked_fragment>
x0678

> <Mpro-_dock>
-6.213734

> <site>
active-noncovalent

$$$$
LON-WEI-b8d98729-35
  -OEChem-07042000473D

 61 63  0     1  0  0  0  0  0999 V2000
    5.8570    0.1617   19.1662 C   0  0  0  0  0  0  0  0  0  0  0  0
    6.6635    0.4528   20.2608 C   0  0  0  0  0  0  0  0  0  0  0  0
    7.8479   -1.2734   25.3620 C   0  0  0  0  0  0  0  0  0  0  0  0
    7.8302   -2.5323   23.3000 C   0  0  0  0  0  0  0  0  0  0  0  0
    7.9656   -0.0876   24.6371 C   0  0  0  0  0  0  0  0  0  0  0  0
    7.9478   -1.3465   22.5750 C   0  0  0  0  0  0  0  0  0  0  0  0
   12.7338    0.0750   23.9938 C   0  0  0  0  0  0  0  0  0  0  0  0
   12.4617   -1.4813   22.1659 C   0  0  0  0  0  0  0  0  0  0  0  0
   13.8705   -0.6162   24.4131 C   0  0  0  0  0  0  0  0  0  0  0  0
   13.5984   -2.1725   22.5852 C   0  0  0  0  0  0  0  0  0  0  0  0
    6.4417    0.1676   17.9100 C   0  0  0  0  0  0  0  0  0  0  0  0
    8.4992    0.7169   18.7719 C   0  0  0  0  0  0  0  0  0  0  0  0
    7.7802   -2.4958   24.6935 C   0  0  0  0  0  0  0  0  0  0  0  0
    8.0110    0.7369   20.0685 C   0  0  0  0  0  0  0  0  0  0  0  0
   12.0294   -0.3576   22.8702 C   0  0  0  0  0  0  0  0  0  0  0  0
    8.0156   -0.1241   23.2436 C   0  0  0  0  0  0  0  0  0  0  0  0
   14.3028   -1.7399   23.7088 C   0  0  0  0  0  0  0  0  0  0  0  0
    7.9625    4.7327   22.6647 C   0  0  0  0  0  0  0  0  0  0  0  0
    7.8552    3.5188   22.1152 C   0  0  0  0  0  0  0  0  0  0  0  0
    7.6078    2.3231   22.9732 C   0  0  0  0  0  0  0  0  0  0  0  0
   10.0599    0.0540   21.3543 C   0  0  0  0  0  0  0  0  0  0  0  0
    5.0565   -3.8852   25.2495 C   0  0  0  0  0  0  0  0  0  0  0  0
    7.6080   -3.5978   27.0272 C   0  0  0  0  0  0  0  0  0  0  0  0
    8.8975   -4.6778   25.2067 C   0  0  0  0  0  0  0  0  0  0  0  0
    6.3862   -4.6101   25.0617 C   0  0  0  0  0  0  0  0  0  0  0  0
    8.9147    1.0569   21.2386 C   0  0  2  0  0  0  0  0  0  0  0  0
    7.6503   -3.8046   25.4939 C   0  0  0  0  0  0  0  0  0  0  0  0
    7.7466    0.4386   17.6839 N   0  0  0  0  0  0  0  0  0  0  0  0
   10.8764    0.3439   22.4446 N   0  0  0  0  0  0  0  0  0  0  0  0
    8.1330    1.0618   22.5182 N   0  0  0  0  0  0  0  0  0  0  0  0
    6.9511    2.4585   24.0059 O   0  0  0  0  0  0  0  0  0  0  0  0
   10.1971   -0.8636   20.5497 O   0  0  0  0  0  0  0  0  0  0  0  0
   15.8430   -2.6762   24.2771 Br  0  0  0  0  0  0  0  0  0  0  0  0
    4.8041   -0.0630   19.2924 H   0  0  0  0  0  0  0  0  0  0  0  0
    6.2340    0.4558   21.2589 H   0  0  0  0  0  0  0  0  0  0  0  0
    7.8120   -1.2357   26.4476 H   0  0  0  0  0  0  0  0  0  0  0  0
    7.7788   -3.4803   22.7711 H   0  0  0  0  0  0  0  0  0  0  0  0
    8.0172    0.8595   25.1685 H   0  0  0  0  0  0  0  0  0  0  0  0
    7.9870   -1.3865   21.4893 H   0  0  0  0  0  0  0  0  0  0  0  0
   12.4055    0.9491   24.5501 H   0  0  0  0  0  0  0  0  0  0  0  0
   11.9203   -1.8269   21.2891 H   0  0  0  0  0  0  0  0  0  0  0  0
   14.4083   -0.2665   25.2904 H   0  0  0  0  0  0  0  0  0  0  0  0
   13.9224   -3.0462   22.0258 H   0  0  0  0  0  0  0  0  0  0  0  0
    5.8551   -0.0528   17.0242 H   0  0  0  0  0  0  0  0  0  0  0  0
    9.5424    0.9304   18.5601 H   0  0  0  0  0  0  0  0  0  0  0  0
    8.1192    5.6018   22.0344 H   0  0  0  0  0  0  0  0  0  0  0  0
    7.9056    4.8952   23.7354 H   0  0  0  0  0  0  0  0  0  0  0  0
    7.9017    3.4021   21.0386 H   0  0  0  0  0  0  0  0  0  0  0  0
    5.0323   -2.9376   24.7045 H   0  0  0  0  0  0  0  0  0  0  0  0
    4.9080   -3.6556   26.3100 H   0  0  0  0  0  0  0  0  0  0  0  0
    4.2108   -4.4969   24.9229 H   0  0  0  0  0  0  0  0  0  0  0  0
    7.5152   -4.5566   27.5509 H   0  0  0  0  0  0  0  0  0  0  0  0
    6.7639   -2.9738   27.3390 H   0  0  0  0  0  0  0  0  0  0  0  0
    8.5249   -3.1197   27.3923 H   0  0  0  0  0  0  0  0  0  0  0  0
    8.8695   -5.6300   25.7481 H   0  0  0  0  0  0  0  0  0  0  0  0
    9.8176   -4.1637   25.5086 H   0  0  0  0  0  0  0  0  0  0  0  0
    8.9811   -4.9102   24.1383 H   0  0  0  0  0  0  0  0  0  0  0  0
    6.3430   -5.5478   25.6321 H   0  0  0  0  0  0  0  0  0  0  0  0
    6.4642   -4.9102   24.0094 H   0  0  0  0  0  0  0  0  0  0  0  0
    9.3424    2.0602   21.1214 H   0  0  0  0  0  0  0  0  0  0  0  0
   10.6131    1.1550   23.0002 H   0  0  0  0  0  0  0  0  0  0  0  0
  1  2  2  0  0  0  0
  1 11  1  0  0  0  0
  2 14  1  0  0  0  0
  3  5  2  0  0  0  0
  3 13  1  0  0  0  0
  4  6  1  0  0  0  0
  4 13  2  0  0  0  0
  5 16  1  0  0  0  0
  6 16  2  0  0  0  0
  7  9  2  0  0  0  0
  7 15  1  0  0  0  0
  8 10  1  0  0  0  0
  8 15  2  0  0  0  0
  9 17  1  0  0  0  0
 10 17  2  0  0  0  0
 11 28  2  0  0  0  0
 12 14  2  0  0  0  0
 12 28  1  0  0  0  0
 13 27  1  0  0  0  0
 14 26  1  0  0  0  0
 15 29  1  0  0  0  0
 16 30  1  0  0  0  0
 17 33  1  0  0  0  0
 18 19  2  0  0  0  0
 19 20  1  0  0  0  0
 20 30  1  0  0  0  0
 20 31  2  0  0  0  0
 21 26  1  0  0  0  0
 21 29  1  0  0  0  0
 21 32  2  0  0  0  0
 22 25  1  0  0  0  0
 23 27  1  0  0  0  0
 24 27  1  0  0  0  0
 25 27  1  0  0  0  0
 26 30  1  0  0  0  0
  1 34  1  0  0  0  0
  2 35  1  0  0  0  0
  3 36  1  0  0  0  0
  4 37  1  0  0  0  0
  5 38  1  0  0  0  0
  6 39  1  0  0  0  0
  7 40  1  0  0  0  0
  8 41  1  0  0  0  0
  9 42  1  0  0  0  0
 10 43  1  0  0  0  0
 11 44  1  0  0  0  0
 12 45  1  0  0  0  0
 18 46  1  0  0  0  0
 18 47  1  0  0  0  0
 19 48  1  0  0  0  0
 22 49  1  0  0  0  0
 22 50  1  0  0  0  0
 22 51  1  0  0  0  0
 23 52  1  0  0  0  0
 23 53  1  0  0  0  0
 23 54  1  0  0  0  0
 24 55  1  0  0  0  0
 24 56  1  0  0  0  0
 24 57  1  0  0  0  0
 25 58  1  0  0  0  0
 25 59  1  0  0  0  0
 26 60  1  0  0  0  0
 29 61  1  0  0  0  0
M  END
> <series>
3-aminopyridine-like

> <r_inhibition_at_20_uM>
0.0

> <r_inhibition_at_50_uM>

> <r_IC50>

> <f_inhibition_at_20_uM>
8.3185375

> <f_inhibition_at_50_uM>
18.35956

> <f_avg_IC50>

> <f_avg_pIC50>

> <ASSAYED>
True

> <Hybrid2>
-9.675431

> <docked_fragment>
x0678

> <Mpro-_dock>
-4.585917

> <site>
active-noncovalent

$$$$
BAR-COM-0f94fc3d-48
  -OEChem-07042000473D

 37 39  0     0  0  0  0  0  0999 V2000
   12.3577    0.0054   24.3830 C   0  0  0  0  0  0  0  0  0  0  0  0
   13.2923   -0.4544   23.4596 C   0  0  0  0  0  0  0  0  0  0  0  0
    5.7577    1.2028   18.8811 C   0  0  0  0  0  0  0  0  0  0  0  0
   11.5607   -1.7315   22.3547 C   0  0  0  0  0  0  0  0  0  0  0  0
    6.3421    0.9152   17.6582 C   0  0  0  0  0  0  0  0  0  0  0  0
    7.7027   -0.6876   18.5843 C   0  0  0  0  0  0  0  0  0  0  0  0
    6.1914    0.4900   19.9933 C   0  0  0  0  0  0  0  0  0  0  0  0
   10.6062   -1.2697   23.2730 C   0  0  0  0  0  0  0  0  0  0  0  0
    7.1823   -0.4750   19.8507 C   0  0  0  0  0  0  0  0  0  0  0  0
   11.0212   -0.3905   24.2799 C   0  0  0  0  0  0  0  0  0  0  0  0
   12.8935   -1.3201   22.4452 C   0  0  0  0  0  0  0  0  0  0  0  0
    8.3148   -1.1149   24.0982 C   0  0  0  0  0  0  0  0  0  0  0  0
    8.6374   -2.2153   20.9453 C   0  0  0  0  0  0  0  0  0  0  0  0
    8.8294    0.1106   24.8261 C   0  0  0  0  0  0  0  0  0  0  0  0
    5.5790    0.7800   21.3243 C   0  0  0  0  0  0  0  0  0  0  0  0
    8.8425   -2.7683   22.3424 C   0  0  0  0  0  0  0  0  0  0  0  0
    7.3069   -0.0150   17.4805 N   0  0  0  0  0  0  0  0  0  0  0  0
    9.2484   -1.6984   23.2451 N   0  0  0  0  0  0  0  0  0  0  0  0
    7.6568   -1.2268   20.9518 N   0  0  0  0  0  0  0  0  0  0  0  0
    7.1422   -1.4680   24.2214 O   0  0  0  0  0  0  0  0  0  0  0  0
    9.2838   -2.6154   19.9823 O   0  0  0  0  0  0  0  0  0  0  0  0
   10.1747    0.0731   25.2491 O   0  0  0  0  0  0  0  0  0  0  0  0
   14.0451   -1.8782   21.2927 Cl  0  0  0  0  0  0  0  0  0  0  0  0
   12.6751    0.6698   25.1825 H   0  0  0  0  0  0  0  0  0  0  0  0
   14.3251   -0.1255   23.5403 H   0  0  0  0  0  0  0  0  0  0  0  0
    4.9869    1.9620   18.9586 H   0  0  0  0  0  0  0  0  0  0  0  0
   11.2820   -2.4174   21.5584 H   0  0  0  0  0  0  0  0  0  0  0  0
    6.0391    1.4433   16.7600 H   0  0  0  0  0  0  0  0  0  0  0  0
    8.4781   -1.4276   18.4089 H   0  0  0  0  0  0  0  0  0  0  0  0
    8.7279    0.9673   24.1508 H   0  0  0  0  0  0  0  0  0  0  0  0
    8.1807    0.2978   25.6910 H   0  0  0  0  0  0  0  0  0  0  0  0
    4.7033    0.1411   21.4868 H   0  0  0  0  0  0  0  0  0  0  0  0
    6.2951    0.6051   22.1367 H   0  0  0  0  0  0  0  0  0  0  0  0
    5.2649    1.8288   21.3959 H   0  0  0  0  0  0  0  0  0  0  0  0
    9.6149   -3.5436   22.3235 H   0  0  0  0  0  0  0  0  0  0  0  0
    7.9048   -3.2125   22.6906 H   0  0  0  0  0  0  0  0  0  0  0  0
    7.2223   -1.0090   21.8461 H   0  0  0  0  0  0  0  0  0  0  0  0
  1  2  2  0  0  0  0
  1 10  1  0  0  0  0
  2 11  1  0  0  0  0
  3  5  2  0  0  0  0
  3  7  1  0  0  0  0
  4  8  1  0  0  0  0
  4 11  2  0  0  0  0
  5 17  1  0  0  0  0
  6  9  1  0  0  0  0
  6 17  2  0  0  0  0
  7  9  2  0  0  0  0
  7 15  1  0  0  0  0
  8 10  2  0  0  0  0
  8 18  1  0  0  0  0
  9 19  1  0  0  0  0
 10 22  1  0  0  0  0
 11 23  1  0  0  0  0
 12 14  1  0  0  0  0
 12 18  1  0  0  0  0
 12 20  2  0  0  0  0
 13 16  1  0  0  0  0
 13 19  1  0  0  0  0
 13 21  2  0  0  0  0
 14 22  1  0  0  0  0
 16 18  1  0  0  0  0
  1 24  1  0  0  0  0
  2 25  1  0  0  0  0
  3 26  1  0  0  0  0
  4 27  1  0  0  0  0
  5 28  1  0  0  0  0
  6 29  1  0  0  0  0
 14 30  1  0  0  0  0
 14 31  1  0  0  0  0
 15 32  1  0  0  0  0
 15 33  1  0  0  0  0
 15 34  1  0  0  0  0
 16 35  1  0  0  0  0
 16 36  1  0  0  0  0
 19 37  1  0  0  0  0
M  END
> <series>
3-aminopyridine-like

> <r_inhibition_at_20_uM>

> <r_inhibition_at_50_uM>
67.195

> <r_IC50>

> <f_inhibition_at_20_uM>
32.761255

> <f_inhibition_at_50_uM>
49.274905

> <f_avg_IC50>

> <f_avg_pIC50>

> <ASSAYED>
True

> <Hybrid2>
-9.654963

> <docked_fragment>
x0678

> <Mpro-_dock>
-5.455247

> <site>
active-noncovalent

$$$$
RAL-MED-2de63afb-12
  -OEChem-07042000473D

 37 38  0     0  0  0  0  0  0999 V2000
   13.8245   -0.9392   22.5354 C   0  0  0  0  0  0  0  0  0  0  0  0
   13.9452    0.3069   23.1504 C   0  0  0  0  0  0  0  0  0  0  0  0
   12.5884   -1.3567   22.0419 C   0  0  0  0  0  0  0  0  0  0  0  0
   11.5936    0.7180   22.7787 C   0  0  0  0  0  0  0  0  0  0  0  0
    6.1807    0.4353   19.9921 C   0  0  0  0  0  0  0  0  0  0  0  0
    7.7527   -0.5583   18.5785 C   0  0  0  0  0  0  0  0  0  0  0  0
    6.1477    0.8232   17.7525 C   0  0  0  0  0  0  0  0  0  0  0  0
   12.8297    1.1355   23.2721 C   0  0  0  0  0  0  0  0  0  0  0  0
    7.2755   -0.3949   19.8630 C   0  0  0  0  0  0  0  0  0  0  0  0
   11.4730   -0.5281   22.1636 C   0  0  0  0  0  0  0  0  0  0  0  0
   13.5625    4.1831   22.2340 C   0  0  0  0  0  0  0  0  0  0  0  0
    9.0122   -0.2580   21.6983 C   0  0  0  0  0  0  0  0  0  0  0  0
   14.7058    4.9715   21.6870 C   0  0  0  0  0  0  0  0  0  0  0  0
    7.9092   -1.0774   21.0468 C   0  0  0  0  0  0  0  0  0  0  0  0
   12.9592    2.4675   23.9298 C   0  0  0  0  0  0  0  0  0  0  0  0
    5.5894    1.0628   18.9544 N   0  0  0  0  0  0  0  0  0  0  0  0
    7.2110    0.0377   17.4961 N   0  0  0  0  0  0  0  0  0  0  0  0
   10.2369   -0.9457   21.6693 N   0  0  0  0  0  0  0  0  0  0  0  0
   13.9082    3.3198   23.2593 N   0  0  0  0  0  0  0  0  0  0  0  0
   12.4409    4.3410   21.7662 O   0  0  0  0  0  0  0  0  0  0  0  0
    8.8084    0.8540   22.1749 O   0  0  0  0  0  0  0  0  0  0  0  0
   14.6932   -1.5843   22.4402 H   0  0  0  0  0  0  0  0  0  0  0  0
   14.9120    0.6230   23.5323 H   0  0  0  0  0  0  0  0  0  0  0  0
   12.5061   -2.3299   21.5645 H   0  0  0  0  0  0  0  0  0  0  0  0
   10.7249    1.3656   22.8755 H   0  0  0  0  0  0  0  0  0  0  0  0
    5.7303    0.6293   20.9605 H   0  0  0  0  0  0  0  0  0  0  0  0
    8.6097   -1.1915   18.3709 H   0  0  0  0  0  0  0  0  0  0  0  0
    5.6917    1.3141   16.9016 H   0  0  0  0  0  0  0  0  0  0  0  0
   15.2096    4.4581   20.8523 H   0  0  0  0  0  0  0  0  0  0  0  0
   14.3888    5.9455   21.2809 H   0  0  0  0  0  0  0  0  0  0  0  0
   15.5053    5.2050   22.4083 H   0  0  0  0  0  0  0  0  0  0  0  0
    7.1418   -1.2958   21.8003 H   0  0  0  0  0  0  0  0  0  0  0  0
    8.3251   -2.0436   20.7341 H   0  0  0  0  0  0  0  0  0  0  0  0
   11.9958    2.9963   23.9470 H   0  0  0  0  0  0  0  0  0  0  0  0
   13.2865    2.3714   24.9743 H   0  0  0  0  0  0  0  0  0  0  0  0
   10.2202   -1.8728   21.2286 H   0  0  0  0  0  0  0  0  0  0  0  0
   14.8815    3.2852   23.5544 H   0  0  0  0  0  0  0  0  0  0  0  0
  1  2  2  0  0  0  0
  1  3  1  0  0  0  0
  2  8  1  0  0  0  0
  3 10  2  0  0  0  0
  4  8  2  0  0  0  0
  4 10  1  0  0  0  0
  5  9  1  0  0  0  0
  5 16  2  0  0  0  0
  6  9  2  0  0  0  0
  6 17  1  0  0  0  0
  7 16  1  0  0  0  0
  7 17  2  0  0  0  0
  8 15  1  0  0  0  0
  9 14  1  0  0  0  0
 10 18  1  0  0  0  0
 11 13  1  0  0  0  0
 11 19  1  0  0  0  0
 11 20  2  0  0  0  0
 12 14  1  0  0  0  0
 12 18  1  0  0  0  0
 12 21  2  0  0  0  0
 15 19  1  0  0  0  0
  1 22  1  0  0  0  0
  2 23  1  0  0  0  0
  3 24  1  0  0  0  0
  4 25  1  0  0  0  0
  5 26  1  0  0  0  0
  6 27  1  0  0  0  0
  7 28  1  0  0  0  0
 13 29  1  0  0  0  0
 13 30  1  0  0  0  0
 13 31  1  0  0  0  0
 14 32  1  0  0  0  0
 14 33  1  0  0  0  0
 15 34  1  0  0  0  0
 15 35  1  0  0  0  0
 18 36  1  0  0  0  0
 19 37  1  0  0  0  0
M  END
> <series>
3-aminopyridine-like

> <r_inhibition_at_20_uM>

> <r_inhibition_at_50_uM>
0.0

> <r_IC50>

> <f_inhibition_at_20_uM>
3.1481172500000003

> <f_inhibition_at_50_uM>
6.2182875000000015

> <f_avg_IC50>

> <f_avg_pIC50>

> <ASSAYED>
True

> <Hybrid2>
-9.612895

> <docked_fragment>
x0678

> <Mpro-_dock>
-6.260509

> <site>
active-noncovalent

$$$$
EDG-MED-0da5ad92-16
  -OEChem-07042000473D

 30 31  0     0  0  0  0  0  0999 V2000
   12.0308    0.6638   24.1445 C   0  0  0  0  0  0  0  0  0  0  0  0
   10.7913    0.1979   23.7062 C   0  0  0  0  0  0  0  0  0  0  0  0
   13.1675   -0.1305   23.9937 C   0  0  0  0  0  0  0  0  0  0  0  0
   11.8251   -1.8567   22.9665 C   0  0  0  0  0  0  0  0  0  0  0  0
    5.5800    1.3112   18.8368 C   0  0  0  0  0  0  0  0  0  0  0  0
    7.8211   -0.1462   18.7181 C   0  0  0  0  0  0  0  0  0  0  0  0
   10.6884   -1.0623   23.1172 C   0  0  0  0  0  0  0  0  0  0  0  0
    6.1094    0.8426   20.0224 C   0  0  0  0  0  0  0  0  0  0  0  0
    7.2684    0.0891   19.9610 C   0  0  0  0  0  0  0  0  0  0  0  0
   13.0646   -1.3908   23.4048 C   0  0  0  0  0  0  0  0  0  0  0  0
    9.0410   -1.2010   21.2015 C   0  0  0  0  0  0  0  0  0  0  0  0
    5.4339    1.1528   21.3136 C   0  0  0  0  0  0  0  0  0  0  0  0
    9.3625   -1.5603   22.6499 C   0  0  0  0  0  0  0  0  0  0  0  0
    6.1422    1.0656   17.6344 N   0  0  0  0  0  0  0  0  0  0  0  0
    7.2811    0.3247   17.5742 N   0  0  0  0  0  0  0  0  0  0  0  0
    7.8820   -0.4327   21.1247 N   0  0  0  0  0  0  0  0  0  0  0  0
    9.7492   -1.5721   20.2710 O   0  0  0  0  0  0  0  0  0  0  0  0
   14.4672   -2.3708   23.2201 Cl  0  0  0  0  0  0  0  0  0  0  0  0
   12.1105    1.6451   24.6032 H   0  0  0  0  0  0  0  0  0  0  0  0
    9.9109    0.8235   23.8278 H   0  0  0  0  0  0  0  0  0  0  0  0
   14.1271    0.2454   24.3402 H   0  0  0  0  0  0  0  0  0  0  0  0
   11.7397   -2.8383   22.5062 H   0  0  0  0  0  0  0  0  0  0  0  0
    4.6747    1.9077   18.8091 H   0  0  0  0  0  0  0  0  0  0  0  0
    8.7278   -0.7281   18.5927 H   0  0  0  0  0  0  0  0  0  0  0  0
    4.6985    0.3758   21.5580 H   0  0  0  0  0  0  0  0  0  0  0  0
    6.1568    1.2173   22.1378 H   0  0  0  0  0  0  0  0  0  0  0  0
    4.9152    2.1201   21.2713 H   0  0  0  0  0  0  0  0  0  0  0  0
    9.3087   -2.6571   22.7487 H   0  0  0  0  0  0  0  0  0  0  0  0
    8.5577   -1.1600   23.2883 H   0  0  0  0  0  0  0  0  0  0  0  0
    7.4227   -0.2220   22.0083 H   0  0  0  0  0  0  0  0  0  0  0  0
  1  2  2  0  0  0  0
  1  3  1  0  0  0  0
  2  7  1  0  0  0  0
  3 10  2  0  0  0  0
  4  7  2  0  0  0  0
  4 10  1  0  0  0  0
  5  8  1  0  0  0  0
  5 14  2  0  0  0  0
  6  9  1  0  0  0  0
  6 15  2  0  0  0  0
  7 13  1  0  0  0  0
  8  9  2  0  0  0  0
  8 12  1  0  0  0  0
  9 16  1  0  0  0  0
 10 18  1  0  0  0  0
 11 13  1  0  0  0  0
 11 16  1  0  0  0  0
 11 17  2  0  0  0  0
 14 15  1  0  0  0  0
  1 19  1  0  0  0  0
  2 20  1  0  0  0  0
  3 21  1  0  0  0  0
  4 22  1  0  0  0  0
  5 23  1  0  0  0  0
  6 24  1  0  0  0  0
 12 25  1  0  0  0  0
 12 26  1  0  0  0  0
 12 27  1  0  0  0  0
 13 28  1  0  0  0  0
 13 29  1  0  0  0  0
 16 30  1  0  0  0  0
M  END
> <series>
3-aminopyridine-like

> <r_inhibition_at_20_uM>

> <r_inhibition_at_50_uM>
13.82873978309464

> <r_IC50>

> <f_inhibition_at_20_uM>
-3.562807

> <f_inhibition_at_50_uM>
-2.6476915

> <f_avg_IC50>

> <f_avg_pIC50>

> <ASSAYED>
True

> <Hybrid2>
-9.582313

> <docked_fragment>
x0678

> <Mpro-_dock>
-7.035039

> <site>
active-noncovalent

$$$$
JAN-GHE-5a013bed-8
  -OEChem-07042000473D

 27 28  0     0  0  0  0  0  0999 V2000
   12.6467    0.3282   24.0879 C   0  0  0  0  0  0  0  0  0  0  0  0
   11.3552   -0.0769   23.7510 C   0  0  0  0  0  0  0  0  0  0  0  0
   13.7255   -0.5291   23.8708 C   0  0  0  0  0  0  0  0  0  0  0  0
   12.2211   -2.1966   22.9802 C   0  0  0  0  0  0  0  0  0  0  0  0
    6.3733    0.8865   18.0808 C   0  0  0  0  0  0  0  0  0  0  0  0
    5.8999    1.1994   19.3359 C   0  0  0  0  0  0  0  0  0  0  0  0
    8.0354   -0.3715   19.0211 C   0  0  0  0  0  0  0  0  0  0  0  0
   11.1424   -1.3393   23.1972 C   0  0  0  0  0  0  0  0  0  0  0  0
   13.5126   -1.7915   23.3170 C   0  0  0  0  0  0  0  0  0  0  0  0
    7.5626   -0.0580   20.2764 C   0  0  0  0  0  0  0  0  0  0  0  0
    9.3525   -1.4201   21.4103 C   0  0  0  0  0  0  0  0  0  0  0  0
    9.7610   -1.7723   22.8385 C   0  0  0  0  0  0  0  0  0  0  0  0
    7.4495    0.0953   17.9008 N   0  0  0  0  0  0  0  0  0  0  0  0
    6.4861    0.7328   20.4563 N   0  0  0  0  0  0  0  0  0  0  0  0
    8.2333   -0.5915   21.4027 N   0  0  0  0  0  0  0  0  0  0  0  0
    9.9692   -1.8447   20.4384 O   0  0  0  0  0  0  0  0  0  0  0  0
   14.8438   -2.8492   23.0505 Cl  0  0  0  0  0  0  0  0  0  0  0  0
   12.8120    1.3112   24.5192 H   0  0  0  0  0  0  0  0  0  0  0  0
   10.5206    0.5976   23.9237 H   0  0  0  0  0  0  0  0  0  0  0  0
   14.7266   -0.2001   24.1384 H   0  0  0  0  0  0  0  0  0  0  0  0
   12.0500   -3.1797   22.5477 H   0  0  0  0  0  0  0  0  0  0  0  0
    5.9017    1.2617   17.1810 H   0  0  0  0  0  0  0  0  0  0  0  0
    5.0351    1.8349   19.4797 H   0  0  0  0  0  0  0  0  0  0  0  0
    8.8999   -1.0067   18.8646 H   0  0  0  0  0  0  0  0  0  0  0  0
    9.6566   -2.8627   22.9635 H   0  0  0  0  0  0  0  0  0  0  0  0
    9.0280   -1.3183   23.5256 H   0  0  0  0  0  0  0  0  0  0  0  0
    7.8535   -0.3402   22.3130 H   0  0  0  0  0  0  0  0  0  0  0  0
  1  2  2  0  0  0  0
  1  3  1  0  0  0  0
  2  8  1  0  0  0  0
  3  9  2  0  0  0  0
  4  8  2  0  0  0  0
  4  9  1  0  0  0  0
  5  6  2  0  0  0  0
  5 13  1  0  0  0  0
  6 14  1  0  0  0  0
  7 10  1  0  0  0  0
  7 13  2  0  0  0  0
  8 12  1  0  0  0  0
  9 17  1  0  0  0  0
 10 14  2  0  0  0  0
 10 15  1  0  0  0  0
 11 12  1  0  0  0  0
 11 15  1  0  0  0  0
 11 16  2  0  0  0  0
  1 18  1  0  0  0  0
  2 19  1  0  0  0  0
  3 20  1  0  0  0  0
  4 21  1  0  0  0  0
  5 22  1  0  0  0  0
  6 23  1  0  0  0  0
  7 24  1  0  0  0  0
 12 25  1  0  0  0  0
 12 26  1  0  0  0  0
 15 27  1  0  0  0  0
M  END
> <series>
3-aminopyridine-like

> <r_inhibition_at_20_uM>

> <r_inhibition_at_50_uM>
0.0

> <r_IC50>

> <f_inhibition_at_20_uM>
3.7111625

> <f_inhibition_at_50_uM>
13.314419999999998

> <f_avg_IC50>

> <f_avg_pIC50>

> <ASSAYED>
True

> <Hybrid2>
-9.569855

> <docked_fragment>
x0678

> <Mpro-_dock>
-8.783582

> <site>
active-noncovalent

$$$$
DAR-DIA-842b4336-18
  -OEChem-07042000473D

 32 34  0     0  0  0  0  0  0999 V2000
    5.5076    1.4385   18.5405 C   0  0  0  0  0  0  0  0  0  0  0  0
    5.7519    1.0761   19.8639 C   0  0  0  0  0  0  0  0  0  0  0  0
   14.9331   -1.4990   24.4612 C   0  0  0  0  0  0  0  0  0  0  0  0
   13.8274   -2.2854   24.0263 C   0  0  0  0  0  0  0  0  0  0  0  0
    7.4446   -0.3298   21.2797 C   0  0  0  0  0  0  0  0  0  0  0  0
    6.3625    0.9712   17.5514 C   0  0  0  0  0  0  0  0  0  0  0  0
    6.8585    0.2517   20.1244 C   0  0  0  0  0  0  0  0  0  0  0  0
    8.5436   -1.0534   20.8698 C   0  0  0  0  0  0  0  0  0  0  0  0
   14.7884   -0.1713   24.1236 C   0  0  0  0  0  0  0  0  0  0  0  0
    7.6323   -0.1439   19.0373 C   0  0  0  0  0  0  0  0  0  0  0  0
   12.8795   -1.5287   23.3730 C   0  0  0  0  0  0  0  0  0  0  0  0
   10.7325   -1.0668   22.1393 C   0  0  0  0  0  0  0  0  0  0  0  0
   15.7108    0.9530   24.3929 C   0  0  0  0  0  0  0  0  0  0  0  0
    9.5123   -1.8521   21.6442 C   0  0  0  0  0  0  0  0  0  0  0  0
    7.4411    0.1766   17.7436 N   0  0  0  0  0  0  0  0  0  0  0  0
    8.6482   -0.9334   19.5082 N   0  0  0  0  0  0  0  0  0  0  0  0
   11.6444   -1.8959   22.7877 N   0  0  0  0  0  0  0  0  0  0  0  0
   10.8287    0.1422   21.9545 O   0  0  0  0  0  0  0  0  0  0  0  0
   13.3242    0.1226   23.2858 S   0  0  0  0  0  0  0  0  0  0  0  0
    4.6652    2.0741   18.2901 H   0  0  0  0  0  0  0  0  0  0  0  0
    5.1044    1.4248   20.6621 H   0  0  0  0  0  0  0  0  0  0  0  0
   15.7899   -1.8915   24.9943 H   0  0  0  0  0  0  0  0  0  0  0  0
   13.7363   -3.3522   24.1872 H   0  0  0  0  0  0  0  0  0  0  0  0
    7.1017   -0.2301   22.3008 H   0  0  0  0  0  0  0  0  0  0  0  0
    6.1870    1.2442   16.5141 H   0  0  0  0  0  0  0  0  0  0  0  0
   16.4321    1.0771   23.5700 H   0  0  0  0  0  0  0  0  0  0  0  0
   15.1715    1.9065   24.5158 H   0  0  0  0  0  0  0  0  0  0  0  0
   16.2826    0.8015   25.3232 H   0  0  0  0  0  0  0  0  0  0  0  0
    9.0332   -2.3090   22.5331 H   0  0  0  0  0  0  0  0  0  0  0  0
    9.8899   -2.7070   21.0485 H   0  0  0  0  0  0  0  0  0  0  0  0
    9.3634   -1.3605   18.9357 H   0  0  0  0  0  0  0  0  0  0  0  0
   11.3934   -2.8805   22.8477 H   0  0  0  0  0  0  0  0  0  0  0  0
  1  2  2  0  0  0  0
  1  6  1  0  0  0  0
  2  7  1  0  0  0  0
  3  4  1  0  0  0  0
  3  9  2  0  0  0  0
  4 11  2  0  0  0  0
  5  7  1  0  0  0  0
  5  8  2  0  0  0  0
  6 15  2  0  0  0  0
  7 10  2  0  0  0  0
  8 14  1  0  0  0  0
  8 16  1  0  0  0  0
  9 13  1  0  0  0  0
  9 19  1  0  0  0  0
 10 15  1  0  0  0  0
 10 16  1  0  0  0  0
 11 17  1  0  0  0  0
 11 19  1  0  0  0  0
 12 14  1  0  0  0  0
 12 17  1  0  0  0  0
 12 18  2  0  0  0  0
  1 20  1  0  0  0  0
  2 21  1  0  0  0  0
  3 22  1  0  0  0  0
  4 23  1  0  0  0  0
  5 24  1  0  0  0  0
  6 25  1  0  0  0  0
 13 26  1  0  0  0  0
 13 27  1  0  0  0  0
 13 28  1  0  0  0  0
 14 29  1  0  0  0  0
 14 30  1  0  0  0  0
 16 31  1  0  0  0  0
 17 32  1  0  0  0  0
M  END
> <series>
3-aminopyridine-like

> <r_inhibition_at_20_uM>

> <r_inhibition_at_50_uM>
7.423525196

> <r_IC50>

> <f_inhibition_at_20_uM>
23.743935

> <f_inhibition_at_50_uM>
8.2806935

> <f_avg_IC50>

> <f_avg_pIC50>

> <ASSAYED>
True

> <Hybrid2>
-9.557564

> <docked_fragment>
x0678

> <Mpro-_dock>
-5.598056

> <site>
active-noncovalent

$$$$
EDG-MED-0da5ad92-13
  -OEChem-07042000473D

 31 32  0     0  0  0  0  0  0999 V2000
   14.0755   -1.7026   22.8631 C   0  0  0  0  0  0  0  0  0  0  0  0
   12.8574   -2.3754   22.9589 C   0  0  0  0  0  0  0  0  0  0  0  0
    7.3279   -0.2057   20.6733 C   0  0  0  0  0  0  0  0  0  0  0  0
   14.1029   -0.3081   22.8503 C   0  0  0  0  0  0  0  0  0  0  0  0
    6.5073    0.4434   19.7575 C   0  0  0  0  0  0  0  0  0  0  0  0
   11.6941   -0.2590   23.0288 C   0  0  0  0  0  0  0  0  0  0  0  0
    8.9035   -0.5646   18.9283 C   0  0  0  0  0  0  0  0  0  0  0  0
   11.6666   -1.6536   23.0417 C   0  0  0  0  0  0  0  0  0  0  0  0
    8.5505   -0.7221   20.2588 C   0  0  0  0  0  0  0  0  0  0  0  0
   12.9122    0.4137   22.9331 C   0  0  0  0  0  0  0  0  0  0  0  0
    6.9519    0.5489   18.4494 C   0  0  0  0  0  0  0  0  0  0  0  0
    9.1900   -1.6201   22.5237 C   0  0  0  0  0  0  0  0  0  0  0  0
    6.0967    1.2389   17.4398 C   0  0  0  0  0  0  0  0  0  0  0  0
   10.3644   -2.3736   23.1429 C   0  0  0  0  0  0  0  0  0  0  0  0
    8.1330    0.0598   18.0096 N   0  0  0  0  0  0  0  0  0  0  0  0
    9.4071   -1.3874   21.1679 N   0  0  0  0  0  0  0  0  0  0  0  0
    8.2124   -1.2893   23.1870 O   0  0  0  0  0  0  0  0  0  0  0  0
   12.9466    2.1343   22.9159 Cl  0  0  0  0  0  0  0  0  0  0  0  0
   15.0025   -2.2651   22.7985 H   0  0  0  0  0  0  0  0  0  0  0  0
   12.8454   -3.4622   22.9682 H   0  0  0  0  0  0  0  0  0  0  0  0
    7.0055   -0.3026   21.7066 H   0  0  0  0  0  0  0  0  0  0  0  0
   15.0596    0.2029   22.7749 H   0  0  0  0  0  0  0  0  0  0  0  0
    5.5509    0.8504   20.0681 H   0  0  0  0  0  0  0  0  0  0  0  0
   10.7630    0.2992   23.0941 H   0  0  0  0  0  0  0  0  0  0  0  0
    9.8451   -0.9469   18.5454 H   0  0  0  0  0  0  0  0  0  0  0  0
    6.3325    2.3094   17.4084 H   0  0  0  0  0  0  0  0  0  0  0  0
    6.2479    0.8191   16.4371 H   0  0  0  0  0  0  0  0  0  0  0  0
    5.0311    1.1233   17.6757 H   0  0  0  0  0  0  0  0  0  0  0  0
   10.4327   -3.3593   22.6536 H   0  0  0  0  0  0  0  0  0  0  0  0
   10.1217   -2.5770   24.1989 H   0  0  0  0  0  0  0  0  0  0  0  0
   10.2839   -1.7365   20.7864 H   0  0  0  0  0  0  0  0  0  0  0  0
  1  2  2  0  0  0  0
  1  4  1  0  0  0  0
  2  8  1  0  0  0  0
  3  5  2  0  0  0  0
  3  9  1  0  0  0  0
  4 10  2  0  0  0  0
  5 11  1  0  0  0  0
  6  8  2  0  0  0  0
  6 10  1  0  0  0  0
  7  9  2  0  0  0  0
  7 15  1  0  0  0  0
  8 14  1  0  0  0  0
  9 16  1  0  0  0  0
 10 18  1  0  0  0  0
 11 13  1  0  0  0  0
 11 15  2  0  0  0  0
 12 14  1  0  0  0  0
 12 16  1  0  0  0  0
 12 17  2  0  0  0  0
  1 19  1  0  0  0  0
  2 20  1  0  0  0  0
  3 21  1  0  0  0  0
  4 22  1  0  0  0  0
  5 23  1  0  0  0  0
  6 24  1  0  0  0  0
  7 25  1  0  0  0  0
 13 26  1  0  0  0  0
 13 27  1  0  0  0  0
 13 28  1  0  0  0  0
 14 29  1  0  0  0  0
 14 30  1  0  0  0  0
 16 31  1  0  0  0  0
M  END
> <series>
3-aminopyridine-like

> <r_inhibition_at_20_uM>

> <r_inhibition_at_50_uM>
0.0

> <r_IC50>

> <f_inhibition_at_20_uM>
0.35968310000000003

> <f_inhibition_at_50_uM>
3.352639

> <f_avg_IC50>

> <f_avg_pIC50>

> <ASSAYED>
True

> <Hybrid2>
-9.534226

> <docked_fragment>
x0678

> <Mpro-_dock>
-5.911059

> <site>
active-noncovalent

$$$$
BRU-LEF-c49414a7-1
  -OEChem-07042000473D

 40 42  0     1  0  0  0  0  0999 V2000
   10.7605    1.6219   24.9060 C   0  0  0  0  0  0  0  0  0  0  0  0
    9.6400    1.0260   24.3273 C   0  0  0  0  0  0  0  0  0  0  0  0
   11.9363    0.8885   25.0656 C   0  0  0  0  0  0  0  0  0  0  0  0
    5.3111    1.1974   18.5217 C   0  0  0  0  0  0  0  0  0  0  0  0
   10.8709   -1.0367   24.0679 C   0  0  0  0  0  0  0  0  0  0  0  0
    6.1614    0.7957   17.5041 C   0  0  0  0  0  0  0  0  0  0  0  0
    7.6410   -0.1432   18.9898 C   0  0  0  0  0  0  0  0  0  0  0  0
    9.6952   -0.3033   23.9082 C   0  0  0  0  0  0  0  0  0  0  0  0
    5.6745    0.8976   19.8298 C   0  0  0  0  0  0  0  0  0  0  0  0
    6.8602    0.2147   20.0770 C   0  0  0  0  0  0  0  0  0  0  0  0
   11.9915   -0.4408   24.6466 C   0  0  0  0  0  0  0  0  0  0  0  0
   13.7518   -1.5710   21.7074 C   0  0  0  0  0  0  0  0  0  0  0  0
    8.4289   -0.7904   21.7723 C   0  0  0  0  0  0  0  0  0  0  0  0
   14.2167   -2.4178   22.9031 C   0  0  0  0  0  0  0  0  0  0  0  0
   14.0775   -1.1192   23.7278 C   0  0  1  0  0  0  0  0  0  0  0  0
    4.7767    1.3194   20.9464 C   0  0  0  0  0  0  0  0  0  0  0  0
    8.4969   -0.9404   23.2900 C   0  0  0  0  0  0  0  0  0  0  0  0
    7.3211    0.1307   17.7052 N   0  0  0  0  0  0  0  0  0  0  0  0
   13.6323   -0.4734   22.4989 N   0  0  0  0  0  0  0  0  0  0  0  0
    7.2732   -0.1138   21.3902 N   0  0  0  0  0  0  0  0  0  0  0  0
   13.5539   -1.7536   20.5285 O   0  0  0  0  0  0  0  0  0  0  0  0
    9.3082   -1.2315   21.0392 O   0  0  0  0  0  0  0  0  0  0  0  0
   13.1391   -1.1562   24.8019 O   0  0  0  0  0  0  0  0  0  0  0  0
   10.7177    2.6569   25.2317 H   0  0  0  0  0  0  0  0  0  0  0  0
    8.7283    1.6052   24.2074 H   0  0  0  0  0  0  0  0  0  0  0  0
   12.8056    1.3584   25.5171 H   0  0  0  0  0  0  0  0  0  0  0  0
    4.3931    1.7290   18.2951 H   0  0  0  0  0  0  0  0  0  0  0  0
   10.9168   -2.0734   23.7424 H   0  0  0  0  0  0  0  0  0  0  0  0
    5.9236    1.0055   16.4664 H   0  0  0  0  0  0  0  0  0  0  0  0
    8.5774   -0.6781   19.1182 H   0  0  0  0  0  0  0  0  0  0  0  0
   13.5264   -3.2240   23.1648 H   0  0  0  0  0  0  0  0  0  0  0  0
   15.2342   -2.8051   22.8088 H   0  0  0  0  0  0  0  0  0  0  0  0
   15.0365   -0.7108   24.0662 H   0  0  0  0  0  0  0  0  0  0  0  0
    4.0462    0.5317   21.1646 H   0  0  0  0  0  0  0  0  0  0  0  0
    5.3495    1.5275   21.8585 H   0  0  0  0  0  0  0  0  0  0  0  0
    4.2344    2.2388   20.6931 H   0  0  0  0  0  0  0  0  0  0  0  0
    8.4699   -2.0168   23.5272 H   0  0  0  0  0  0  0  0  0  0  0  0
    7.5744   -0.5141   23.7174 H   0  0  0  0  0  0  0  0  0  0  0  0
   13.3487    0.4696   22.2714 H   0  0  0  0  0  0  0  0  0  0  0  0
    6.6535    0.1784   22.1429 H   0  0  0  0  0  0  0  0  0  0  0  0
  1  2  2  0  0  0  0
  1  3  1  0  0  0  0
  2  8  1  0  0  0  0
  3 11  2  0  0  0  0
  4  6  2  0  0  0  0
  4  9  1  0  0  0  0
  5  8  2  0  0  0  0
  5 11  1  0  0  0  0
  6 18  1  0  0  0  0
  7 10  1  0  0  0  0
  7 18  2  0  0  0  0
  8 17  1  0  0  0  0
  9 10  2  0  0  0  0
  9 16  1  0  0  0  0
 10 20  1  0  0  0  0
 11 23  1  0  0  0  0
 12 14  1  0  0  0  0
 12 19  1  0  0  0  0
 12 21  2  0  0  0  0
 13 17  1  0  0  0  0
 13 20  1  0  0  0  0
 13 22  2  0  0  0  0
 14 15  1  0  0  0  0
 15 19  1  0  0  0  0
 15 23  1  0  0  0  0
  1 24  1  0  0  0  0
  2 25  1  0  0  0  0
  3 26  1  0  0  0  0
  4 27  1  0  0  0  0
  5 28  1  0  0  0  0
  6 29  1  0  0  0  0
  7 30  1  0  0  0  0
 14 31  1  0  0  0  0
 14 32  1  0  0  0  0
 15 33  1  0  0  0  0
 16 34  1  0  0  0  0
 16 35  1  0  0  0  0
 16 36  1  0  0  0  0
 17 37  1  0  0  0  0
 17 38  1  0  0  0  0
 19 39  1  0  0  0  0
 20 40  1  0  0  0  0
M  END
> <series>
3-aminopyridine-like

> <r_inhibition_at_20_uM>

> <r_inhibition_at_50_uM>
0.0

> <r_IC50>

> <f_inhibition_at_20_uM>
5.501569999999999

> <f_inhibition_at_50_uM>
16.656155

> <f_avg_IC50>

> <f_avg_pIC50>

> <ASSAYED>
True

> <Hybrid2>
-9.514392

> <docked_fragment>
x0678

> <Mpro-_dock>
-5.075375

> <site>
active-noncovalent

$$$$
TRY-UNI-2eddb1ff-7
  -OEChem-07042000473D

 40 42  0     1  0  0  0  0  0999 V2000
    5.5356    1.2881   18.6819 C   0  0  0  0  0  0  0  0  0  0  0  0
   10.7687    0.7659   23.6618 C   0  0  0  0  0  0  0  0  0  0  0  0
   11.7103   -1.4265   23.2833 C   0  0  0  0  0  0  0  0  0  0  0  0
   13.1313    0.3910   24.0005 C   0  0  0  0  0  0  0  0  0  0  0  0
    6.1474    0.7707   17.5515 C   0  0  0  0  0  0  0  0  0  0  0  0
    7.7557   -0.2937   18.8000 C   0  0  0  0  0  0  0  0  0  0  0  0
    6.0880    0.9793   19.9200 C   0  0  0  0  0  0  0  0  0  0  0  0
   10.6089   -0.5707   23.2965 C   0  0  0  0  0  0  0  0  0  0  0  0
    7.2193    0.1739   19.9889 C   0  0  0  0  0  0  0  0  0  0  0  0
   12.0299    1.2468   24.0138 C   0  0  0  0  0  0  0  0  0  0  0  0
   12.9715   -0.9456   23.6353 C   0  0  0  0  0  0  0  0  0  0  0  0
   11.2620    5.5266   23.7248 C   0  0  0  0  0  0  0  0  0  0  0  0
    8.9444   -0.9615   21.4311 C   0  0  0  0  0  0  0  0  0  0  0  0
   10.4614    4.2206   23.5975 C   0  0  0  0  0  0  0  0  0  0  0  0
   11.8320    3.5361   23.4005 C   0  0  1  0  0  0  0  0  0  0  0  0
    5.4490    1.5241   21.1552 C   0  0  0  0  0  0  0  0  0  0  0  0
    9.2603   -1.0837   22.9196 C   0  0  0  0  0  0  0  0  0  0  0  0
    7.2472   -0.0150   17.5787 N   0  0  0  0  0  0  0  0  0  0  0  0
   12.4319    4.8545   23.5656 N   0  0  0  0  0  0  0  0  0  0  0  0
    7.8182   -0.1688   21.2245 N   0  0  0  0  0  0  0  0  0  0  0  0
   11.0088    6.6963   23.8979 O   0  0  0  0  0  0  0  0  0  0  0  0
    9.6302   -1.5147   20.5774 O   0  0  0  0  0  0  0  0  0  0  0  0
   12.1861    2.5511   24.3701 O   0  0  0  0  0  0  0  0  0  0  0  0
   14.3303   -2.0016   23.6202 Cl  0  0  0  0  0  0  0  0  0  0  0  0
    4.6538    1.9136   18.5938 H   0  0  0  0  0  0  0  0  0  0  0  0
    9.9122    1.4354   23.6708 H   0  0  0  0  0  0  0  0  0  0  0  0
   11.5801   -2.4681   22.9976 H   0  0  0  0  0  0  0  0  0  0  0  0
   14.1112    0.7738   24.2765 H   0  0  0  0  0  0  0  0  0  0  0  0
    5.7556    0.9821   16.5620 H   0  0  0  0  0  0  0  0  0  0  0  0
    8.6380   -0.9269   18.7885 H   0  0  0  0  0  0  0  0  0  0  0  0
    9.9195    3.9475   24.5066 H   0  0  0  0  0  0  0  0  0  0  0  0
    9.7936    4.1872   22.7331 H   0  0  0  0  0  0  0  0  0  0  0  0
   11.9880    3.1530   22.3856 H   0  0  0  0  0  0  0  0  0  0  0  0
    4.6886    0.8283   21.5279 H   0  0  0  0  0  0  0  0  0  0  0  0
    6.1912    1.6876   21.9462 H   0  0  0  0  0  0  0  0  0  0  0  0
    4.9716    2.4924   20.9602 H   0  0  0  0  0  0  0  0  0  0  0  0
    9.1610   -2.1447   23.2028 H   0  0  0  0  0  0  0  0  0  0  0  0
    8.4772   -0.5473   23.4805 H   0  0  0  0  0  0  0  0  0  0  0  0
   13.3840    5.1932   23.5484 H   0  0  0  0  0  0  0  0  0  0  0  0
    7.3741    0.2080   22.0593 H   0  0  0  0  0  0  0  0  0  0  0  0
  1  5  2  0  0  0  0
  1  7  1  0  0  0  0
  2  8  2  0  0  0  0
  2 10  1  0  0  0  0
  3  8  1  0  0  0  0
  3 11  2  0  0  0  0
  4 10  2  0  0  0  0
  4 11  1  0  0  0  0
  5 18  1  0  0  0  0
  6  9  1  0  0  0  0
  6 18  2  0  0  0  0
  7  9  2  0  0  0  0
  7 16  1  0  0  0  0
  8 17  1  0  0  0  0
  9 20  1  0  0  0  0
 10 23  1  0  0  0  0
 11 24  1  0  0  0  0
 12 14  1  0  0  0  0
 12 19  1  0  0  0  0
 12 21  2  0  0  0  0
 13 17  1  0  0  0  0
 13 20  1  0  0  0  0
 13 22  2  0  0  0  0
 14 15  1  0  0  0  0
 15 19  1  0  0  0  0
 15 23  1  0  0  0  0
  1 25  1  0  0  0  0
  2 26  1  0  0  0  0
  3 27  1  0  0  0  0
  4 28  1  0  0  0  0
  5 29  1  0  0  0  0
  6 30  1  0  0  0  0
 14 31  1  0  0  0  0
 14 32  1  0  0  0  0
 15 33  1  0  0  0  0
 16 34  1  0  0  0  0
 16 35  1  0  0  0  0
 16 36  1  0  0  0  0
 17 37  1  0  0  0  0
 17 38  1  0  0  0  0
 19 39  1  0  0  0  0
 20 40  1  0  0  0  0
M  END
> <series>
3-aminopyridine-like

> <r_inhibition_at_20_uM>

> <r_inhibition_at_50_uM>
87.191315835

> <r_IC50>
99.0

> <f_inhibition_at_20_uM>
94.4703

> <f_inhibition_at_50_uM>
97.00562

> <f_avg_IC50>
3.609856311923299

> <f_avg_pIC50>
5.4425100845710075

> <ASSAYED>
True

> <Hybrid2>
-9.505441

> <docked_fragment>
x0678

> <Mpro-_dock>
-4.395097

> <site>
active-noncovalent

$$$$
DAR-DIA-842b4336-4
  -OEChem-07042000473D

 24 25  0     0  0  0  0  0  0999 V2000
    5.8174    0.9896   19.4620 C   0  0  0  0  0  0  0  0  0  0  0  0
    6.7288    0.7398   20.4820 C   0  0  0  0  0  0  0  0  0  0  0  0
   13.1251   -1.6289   21.8161 C   0  0  0  0  0  0  0  0  0  0  0  0
   14.2806   -2.0043   22.5604 C   0  0  0  0  0  0  0  0  0  0  0  0
    6.2027    0.7007   18.1628 C   0  0  0  0  0  0  0  0  0  0  0  0
    8.2684   -0.0383   18.8447 C   0  0  0  0  0  0  0  0  0  0  0  0
    7.9800    0.2161   20.1759 C   0  0  0  0  0  0  0  0  0  0  0  0
   12.1204   -1.1493   22.6274 C   0  0  0  0  0  0  0  0  0  0  0  0
   14.1152   -1.7970   23.9123 C   0  0  0  0  0  0  0  0  0  0  0  0
   10.2235   -0.5719   21.0501 C   0  0  0  0  0  0  0  0  0  0  0  0
    7.4090    0.1914   17.8267 N   0  0  0  0  0  0  0  0  0  0  0  0
    8.9136   -0.0443   21.1760 N   0  0  0  0  0  0  0  0  0  0  0  0
   10.8249   -0.6738   22.3148 N   0  0  0  0  0  0  0  0  0  0  0  0
   10.7476   -0.8905   19.9875 O   0  0  0  0  0  0  0  0  0  0  0  0
   12.5717   -1.1526   24.2793 S   0  0  0  0  0  0  0  0  0  0  0  0
   15.2403   -2.1069   25.1671 Cl  0  0  0  0  0  0  0  0  0  0  0  0
    4.8365    1.3976   19.6774 H   0  0  0  0  0  0  0  0  0  0  0  0
    6.4540    0.9567   21.5109 H   0  0  0  0  0  0  0  0  0  0  0  0
   13.0402   -1.7089   20.7395 H   0  0  0  0  0  0  0  0  0  0  0  0
   15.1849   -2.4057   22.1200 H   0  0  0  0  0  0  0  0  0  0  0  0
    5.5284    0.8784   17.3316 H   0  0  0  0  0  0  0  0  0  0  0  0
    9.2282   -0.4474   18.5433 H   0  0  0  0  0  0  0  0  0  0  0  0
    8.6129    0.1753   22.1327 H   0  0  0  0  0  0  0  0  0  0  0  0
   10.2657   -0.3708   23.1082 H   0  0  0  0  0  0  0  0  0  0  0  0
  1  2  2  0  0  0  0
  1  5  1  0  0  0  0
  2  7  1  0  0  0  0
  3  4  1  0  0  0  0
  3  8  2  0  0  0  0
  4  9  2  0  0  0  0
  5 11  2  0  0  0  0
  6  7  2  0  0  0  0
  6 11  1  0  0  0  0
  7 12  1  0  0  0  0
  8 13  1  0  0  0  0
  8 15  1  0  0  0  0
  9 15  1  0  0  0  0
  9 16  1  0  0  0  0
 10 12  1  0  0  0  0
 10 13  1  0  0  0  0
 10 14  2  0  0  0  0
  1 17  1  0  0  0  0
  2 18  1  0  0  0  0
  3 19  1  0  0  0  0
  4 20  1  0  0  0  0
  5 21  1  0  0  0  0
  6 22  1  0  0  0  0
 12 23  1  0  0  0  0
 13 24  1  0  0  0  0
M  END
> <series>
3-aminopyridine-like

> <r_inhibition_at_20_uM>
0.0

> <r_inhibition_at_50_uM>
35.74

> <r_IC50>

> <f_inhibition_at_20_uM>
8.8541305

> <f_inhibition_at_50_uM>
23.74839

> <f_avg_IC50>

> <f_avg_pIC50>

> <ASSAYED>
True

> <Hybrid2>
-9.498690

> <docked_fragment>
x0678

> <Mpro-_dock>
-4.896461

> <site>
active-noncovalent

$$$$
ERI-UCB-5b47150d-4
  -OEChem-07042000473D

 29 30  0     0  0  0  0  0  0999 V2000
    6.1360    0.6682   19.6001 C   0  0  0  0  0  0  0  0  0  0  0  0
    6.5740    0.5975   18.2875 C   0  0  0  0  0  0  0  0  0  0  0  0
    8.6613   -0.1170   18.9284 C   0  0  0  0  0  0  0  0  0  0  0  0
    7.0325    0.3216   20.6049 C   0  0  0  0  0  0  0  0  0  0  0  0
    8.3212   -0.0796   20.2710 C   0  0  0  0  0  0  0  0  0  0  0  0
   12.6128   -1.2847   22.2587 C   0  0  0  0  0  0  0  0  0  0  0  0
   11.3723   -0.7981   22.4251 C   0  0  0  0  0  0  0  0  0  0  0  0
   10.6525   -0.3091   21.1928 C   0  0  0  0  0  0  0  0  0  0  0  0
   13.7435   -1.8487   22.8816 C   0  0  0  0  0  0  0  0  0  0  0  0
   13.6467   -1.5702   21.3455 C   0  0  0  0  0  0  0  0  0  0  0  0
    6.5871    0.3893   22.0289 C   0  0  0  0  0  0  0  0  0  0  0  0
   10.7387   -0.7453   23.7829 C   0  0  0  0  0  0  0  0  0  0  0  0
    7.8180    0.2124   17.9244 N   0  0  0  0  0  0  0  0  0  0  0  0
    9.2718   -0.4433   21.2591 N   0  0  0  0  0  0  0  0  0  0  0  0
   11.2887    0.1553   20.2499 O   0  0  0  0  0  0  0  0  0  0  0  0
    5.1239    0.9854   19.8270 H   0  0  0  0  0  0  0  0  0  0  0  0
    5.9134    0.8575   17.4669 H   0  0  0  0  0  0  0  0  0  0  0  0
    9.6520   -0.4222   18.6046 H   0  0  0  0  0  0  0  0  0  0  0  0
   14.3597   -1.1909   23.4775 H   0  0  0  0  0  0  0  0  0  0  0  0
   13.6636   -2.8734   23.2153 H   0  0  0  0  0  0  0  0  0  0  0  0
   13.5042   -2.4147   20.6864 H   0  0  0  0  0  0  0  0  0  0  0  0
   14.2000   -0.7320   20.9466 H   0  0  0  0  0  0  0  0  0  0  0  0
    6.1557   -0.5699   22.3379 H   0  0  0  0  0  0  0  0  0  0  0  0
    7.4253    0.6267   22.6955 H   0  0  0  0  0  0  0  0  0  0  0  0
    5.8335    1.1738   22.1715 H   0  0  0  0  0  0  0  0  0  0  0  0
   10.9621    0.2056   24.2777 H   0  0  0  0  0  0  0  0  0  0  0  0
   11.1067   -1.5431   24.4377 H   0  0  0  0  0  0  0  0  0  0  0  0
    9.6529   -0.8649   23.7082 H   0  0  0  0  0  0  0  0  0  0  0  0
    8.8999   -0.8484   22.1131 H   0  0  0  0  0  0  0  0  0  0  0  0
  1  2  2  0  0  0  0
  1  4  1  0  0  0  0
  2 13  1  0  0  0  0
  3  5  1  0  0  0  0
  3 13  2  0  0  0  0
  4  5  2  0  0  0  0
  4 11  1  0  0  0  0
  5 14  1  0  0  0  0
  6  7  2  0  0  0  0
  6  9  1  0  0  0  0
  6 10  1  0  0  0  0
  7  8  1  0  0  0  0
  7 12  1  0  0  0  0
  8 14  1  0  0  0  0
  8 15  2  0  0  0  0
  9 10  1  0  0  0  0
  1 16  1  0  0  0  0
  2 17  1  0  0  0  0
  3 18  1  0  0  0  0
  9 19  1  0  0  0  0
  9 20  1  0  0  0  0
 10 21  1  0  0  0  0
 10 22  1  0  0  0  0
 11 23  1  0  0  0  0
 11 24  1  0  0  0  0
 11 25  1  0  0  0  0
 12 26  1  0  0  0  0
 12 27  1  0  0  0  0
 12 28  1  0  0  0  0
 14 29  1  0  0  0  0
M  END
> <series>
3-aminopyridine-like

> <r_inhibition_at_20_uM>

> <r_inhibition_at_50_uM>
0.0

> <r_IC50>

> <f_inhibition_at_20_uM>
2.1124235

> <f_inhibition_at_50_uM>
-8.02258

> <f_avg_IC50>

> <f_avg_pIC50>

> <ASSAYED>
True

> <Hybrid2>
-9.493248

> <docked_fragment>
x0678

> <Mpro-_dock>
-5.735435

> <site>
active-noncovalent

$$$$
BAR-COM-4e090d3a-20
  -OEChem-07042000473D

 45 47  0     1  0  0  0  0  0999 V2000
   13.6589   -1.6277   23.5165 C   0  0  0  0  0  0  0  0  0  0  0  0
   12.4272   -1.9452   22.9441 C   0  0  0  0  0  0  0  0  0  0  0  0
   14.0514   -0.2941   23.6317 C   0  0  0  0  0  0  0  0  0  0  0  0
   11.9804    0.4044   22.6020 C   0  0  0  0  0  0  0  0  0  0  0  0
    6.4316    0.9165   17.6371 C   0  0  0  0  0  0  0  0  0  0  0  0
    5.9928    1.1262   18.9259 C   0  0  0  0  0  0  0  0  0  0  0  0
    7.9690   -0.5918   18.4059 C   0  0  0  0  0  0  0  0  0  0  0  0
   11.5880   -0.9292   22.4868 C   0  0  0  0  0  0  0  0  0  0  0  0
   13.2122    0.7219   23.1744 C   0  0  0  0  0  0  0  0  0  0  0  0
    7.5308   -0.3816   19.6948 C   0  0  0  0  0  0  0  0  0  0  0  0
    9.3856   -0.3730   21.3970 C   0  0  0  0  0  0  0  0  0  0  0  0
   11.3376    4.9833   23.4160 C   0  0  0  0  0  0  0  0  0  0  0  0
   12.5462    5.5496   22.6655 C   0  0  0  0  0  0  0  0  0  0  0  0
   11.7346    3.5759   23.8535 C   0  0  0  0  0  0  0  0  0  0  0  0
   13.6083    4.4535   22.6884 C   0  0  0  0  0  0  0  0  0  0  0  0
   12.7987    3.1713   22.8404 C   0  0  0  0  0  0  0  0  0  0  0  0
    7.1402   -1.3989   21.9595 C   0  0  0  0  0  0  0  0  0  0  0  0
    8.1653   -1.1268   20.8554 C   0  0  1  0  0  0  0  0  0  0  0  0
    7.4276    0.0537   17.3540 N   0  0  0  0  0  0  0  0  0  0  0  0
    6.5346    0.4809   19.9779 N   0  0  0  0  0  0  0  0  0  0  0  0
   10.3561   -1.2474   21.9142 N   0  0  0  0  0  0  0  0  0  0  0  0
   13.6033    2.0490   23.2888 N   0  0  0  0  0  0  0  0  0  0  0  0
    9.4572    0.8518   21.3525 O   0  0  0  0  0  0  0  0  0  0  0  0
   14.3122   -2.4189   23.8730 H   0  0  0  0  0  0  0  0  0  0  0  0
   12.1324   -2.9883   22.8593 H   0  0  0  0  0  0  0  0  0  0  0  0
   15.0137   -0.0580   24.0788 H   0  0  0  0  0  0  0  0  0  0  0  0
   11.3257    1.1962   22.2446 H   0  0  0  0  0  0  0  0  0  0  0  0
    5.9959    1.4356   16.7924 H   0  0  0  0  0  0  0  0  0  0  0  0
    5.1924    1.8195   19.1527 H   0  0  0  0  0  0  0  0  0  0  0  0
    8.7690   -1.2839   18.1707 H   0  0  0  0  0  0  0  0  0  0  0  0
   11.0619    5.6049   24.2739 H   0  0  0  0  0  0  0  0  0  0  0  0
   10.4709    4.9443   22.7461 H   0  0  0  0  0  0  0  0  0  0  0  0
   12.2636    5.7856   21.6331 H   0  0  0  0  0  0  0  0  0  0  0  0
   12.9152    6.4724   23.1243 H   0  0  0  0  0  0  0  0  0  0  0  0
   12.1488    3.6160   24.8690 H   0  0  0  0  0  0  0  0  0  0  0  0
   10.8808    2.8914   23.8624 H   0  0  0  0  0  0  0  0  0  0  0  0
   14.2234    4.4581   21.7833 H   0  0  0  0  0  0  0  0  0  0  0  0
   14.2702    4.6064   23.5504 H   0  0  0  0  0  0  0  0  0  0  0  0
   12.3185    2.9117   21.8776 H   0  0  0  0  0  0  0  0  0  0  0  0
    6.7408   -0.4578   22.3538 H   0  0  0  0  0  0  0  0  0  0  0  0
    6.2897   -1.9879   21.5983 H   0  0  0  0  0  0  0  0  0  0  0  0
    7.5965   -1.9475   22.7910 H   0  0  0  0  0  0  0  0  0  0  0  0
    8.5233   -2.1056   20.5067 H   0  0  0  0  0  0  0  0  0  0  0  0
   10.1270   -2.2464   21.8589 H   0  0  0  0  0  0  0  0  0  0  0  0
   14.5073    2.2421   23.7108 H   0  0  0  0  0  0  0  0  0  0  0  0
  1  2  2  0  0  0  0
  1  3  1  0  0  0  0
  2  8  1  0  0  0  0
  3  9  2  0  0  0  0
  4  8  2  0  0  0  0
  4  9  1  0  0  0  0
  5  6  2  0  0  0  0
  5 19  1  0  0  0  0
  6 20  1  0  0  0  0
  7 10  1  0  0  0  0
  7 19  2  0  0  0  0
  8 21  1  0  0  0  0
  9 22  1  0  0  0  0
 10 18  1  0  0  0  0
 10 20  2  0  0  0  0
 11 18  1  0  0  0  0
 11 21  1  0  0  0  0
 11 23  2  0  0  0  0
 12 13  1  0  0  0  0
 12 14  1  0  0  0  0
 13 15  1  0  0  0  0
 14 16  1  0  0  0  0
 15 16  1  0  0  0  0
 16 22  1  0  0  0  0
 17 18  1  0  0  0  0
  1 24  1  0  0  0  0
  2 25  1  0  0  0  0
  3 26  1  0  0  0  0
  4 27  1  0  0  0  0
  5 28  1  0  0  0  0
  6 29  1  0  0  0  0
  7 30  1  0  0  0  0
 12 31  1  0  0  0  0
 12 32  1  0  0  0  0
 13 33  1  0  0  0  0
 13 34  1  0  0  0  0
 14 35  1  0  0  0  0
 14 36  1  0  0  0  0
 15 37  1  0  0  0  0
 15 38  1  0  0  0  0
 16 39  1  0  0  0  0
 17 40  1  0  0  0  0
 17 41  1  0  0  0  0
 17 42  1  0  0  0  0
 18 43  1  0  0  0  0
 21 44  1  0  0  0  0
 22 45  1  0  0  0  0
M  END
> <series>
3-aminopyridine-like

> <r_inhibition_at_20_uM>
0.0

> <r_inhibition_at_50_uM>
-2.145

> <r_IC50>

> <f_inhibition_at_20_uM>
-2.7667655

> <f_inhibition_at_50_uM>
0.913150745

> <f_avg_IC50>

> <f_avg_pIC50>

> <ASSAYED>
True

> <Hybrid2>
-9.470178

> <docked_fragment>
x0678

> <Mpro-_dock>
-4.612346

> <site>
active-noncovalent

$$$$
EDG-MED-0da5ad92-14
  -OEChem-07042000473D

 31 32  0     0  0  0  0  0  0999 V2000
   12.0752    0.1951   24.5838 C   0  0  0  0  0  0  0  0  0  0  0  0
    6.0422    1.0742   19.4350 C   0  0  0  0  0  0  0  0  0  0  0  0
   10.7672   -0.2893   24.5759 C   0  0  0  0  0  0  0  0  0  0  0  0
    6.6475    0.4444   20.5167 C   0  0  0  0  0  0  0  0  0  0  0  0
   12.9940   -0.2624   23.6392 C   0  0  0  0  0  0  0  0  0  0  0  0
   11.2968   -1.6887   22.6790 C   0  0  0  0  0  0  0  0  0  0  0  0
    6.6446    0.9523   18.1932 C   0  0  0  0  0  0  0  0  0  0  0  0
   10.3780   -1.2312   23.6236 C   0  0  0  0  0  0  0  0  0  0  0  0
    7.8202   -0.2780   20.3263 C   0  0  0  0  0  0  0  0  0  0  0  0
   12.6048   -1.2043   22.6868 C   0  0  0  0  0  0  0  0  0  0  0  0
    8.3430   -0.3395   19.0446 C   0  0  0  0  0  0  0  0  0  0  0  0
    8.0217   -0.9369   22.7492 C   0  0  0  0  0  0  0  0  0  0  0  0
    9.6021   -1.0989   18.7768 C   0  0  0  0  0  0  0  0  0  0  0  0
    8.9795   -1.7497   23.6166 C   0  0  0  0  0  0  0  0  0  0  0  0
    7.7835    0.2592   17.9694 N   0  0  0  0  0  0  0  0  0  0  0  0
    8.4429   -0.9221   21.4219 N   0  0  0  0  0  0  0  0  0  0  0  0
    7.0289   -0.3908   23.2196 O   0  0  0  0  0  0  0  0  0  0  0  0
   13.7392   -1.7691   21.5224 Cl  0  0  0  0  0  0  0  0  0  0  0  0
   12.3779    0.9284   25.3256 H   0  0  0  0  0  0  0  0  0  0  0  0
    5.1275    1.6423   19.5605 H   0  0  0  0  0  0  0  0  0  0  0  0
   10.0579    0.0726   25.3158 H   0  0  0  0  0  0  0  0  0  0  0  0
    6.1972    0.5242   21.5027 H   0  0  0  0  0  0  0  0  0  0  0  0
   14.0102    0.1238   23.6574 H   0  0  0  0  0  0  0  0  0  0  0  0
   10.9883   -2.4228   21.9382 H   0  0  0  0  0  0  0  0  0  0  0  0
    6.2111    1.4244   17.3177 H   0  0  0  0  0  0  0  0  0  0  0  0
    9.3704   -2.1399   18.5250 H   0  0  0  0  0  0  0  0  0  0  0  0
   10.1630   -0.6539   17.9462 H   0  0  0  0  0  0  0  0  0  0  0  0
   10.2635   -1.0887   19.6515 H   0  0  0  0  0  0  0  0  0  0  0  0
    8.9595   -2.7929   23.2605 H   0  0  0  0  0  0  0  0  0  0  0  0
    8.5759   -1.7731   24.6422 H   0  0  0  0  0  0  0  0  0  0  0  0
    9.2981   -1.4342   21.2157 H   0  0  0  0  0  0  0  0  0  0  0  0
  1  3  2  0  0  0  0
  1  5  1  0  0  0  0
  2  4  2  0  0  0  0
  2  7  1  0  0  0  0
  3  8  1  0  0  0  0
  4  9  1  0  0  0  0
  5 10  2  0  0  0  0
  6  8  2  0  0  0  0
  6 10  1  0  0  0  0
  7 15  2  0  0  0  0
  8 14  1  0  0  0  0
  9 11  2  0  0  0  0
  9 16  1  0  0  0  0
 10 18  1  0  0  0  0
 11 13  1  0  0  0  0
 11 15  1  0  0  0  0
 12 14  1  0  0  0  0
 12 16  1  0  0  0  0
 12 17  2  0  0  0  0
  1 19  1  0  0  0  0
  2 20  1  0  0  0  0
  3 21  1  0  0  0  0
  4 22  1  0  0  0  0
  5 23  1  0  0  0  0
  6 24  1  0  0  0  0
  7 25  1  0  0  0  0
 13 26  1  0  0  0  0
 13 27  1  0  0  0  0
 13 28  1  0  0  0  0
 14 29  1  0  0  0  0
 14 30  1  0  0  0  0
 16 31  1  0  0  0  0
M  END
> <series>
3-aminopyridine-like

> <r_inhibition_at_20_uM>

> <r_inhibition_at_50_uM>
0.0

> <r_IC50>

> <f_inhibition_at_20_uM>
-4.5913685

> <f_inhibition_at_50_uM>
-3.8985492999999996

> <f_avg_IC50>

> <f_avg_pIC50>

> <ASSAYED>
True

> <Hybrid2>
-9.431632

> <docked_fragment>
x0678

> <Mpro-_dock>
-6.700199

> <site>
active-noncovalent

$$$$
LON-WEI-b8d98729-19
  -OEChem-07042000473D

 56 58  0     1  0  0  0  0  0999 V2000
   13.5603   -2.1463   23.0118 C   0  0  0  0  0  0  0  0  0  0  0  0
   14.2659   -1.6560   24.1106 C   0  0  0  0  0  0  0  0  0  0  0  0
    5.9671   -0.0244   19.2598 C   0  0  0  0  0  0  0  0  0  0  0  0
    6.7484    0.3523   20.3465 C   0  0  0  0  0  0  0  0  0  0  0  0
    7.8587   -1.0829   25.5584 C   0  0  0  0  0  0  0  0  0  0  0  0
    7.8872   -2.4567   23.5712 C   0  0  0  0  0  0  0  0  0  0  0  0
   12.4463   -1.4563   22.5339 C   0  0  0  0  0  0  0  0  0  0  0  0
    7.9800    0.0609   24.7694 C   0  0  0  0  0  0  0  0  0  0  0  0
    8.0084   -1.3129   22.7821 C   0  0  0  0  0  0  0  0  0  0  0  0
   13.8573   -0.4757   24.7316 C   0  0  0  0  0  0  0  0  0  0  0  0
    6.5835   -0.1298   18.0234 C   0  0  0  0  0  0  0  0  0  0  0  0
    8.6239    0.4744   18.8892 C   0  0  0  0  0  0  0  0  0  0  0  0
    7.8124   -2.3418   24.9593 C   0  0  0  0  0  0  0  0  0  0  0  0
    8.1031    0.6084   20.1662 C   0  0  0  0  0  0  0  0  0  0  0  0
    8.0548   -0.0540   23.3813 C   0  0  0  0  0  0  0  0  0  0  0  0
   12.0377   -0.2760   23.1549 C   0  0  0  0  0  0  0  0  0  0  0  0
   12.7432    0.2143   24.2537 C   0  0  0  0  0  0  0  0  0  0  0  0
    7.9935    4.7640   22.5567 C   0  0  0  0  0  0  0  0  0  0  0  0
    7.9065    3.5255   22.0612 C   0  0  0  0  0  0  0  0  0  0  0  0
    7.6328    2.3702   22.9654 C   0  0  0  0  0  0  0  0  0  0  0  0
   10.1116    0.0209   21.5585 C   0  0  0  0  0  0  0  0  0  0  0  0
    8.8274   -4.5581   25.5968 C   0  0  0  0  0  0  0  0  0  0  0  0
    5.3555   -3.6040   26.1271 C   0  0  0  0  0  0  0  0  0  0  0  0
    8.9800    1.0194   21.3283 C   0  0  2  0  0  0  0  0  0  0  0  0
    7.6828   -3.5647   25.8030 C   0  0  2  0  0  0  0  0  0  0  0  0
    7.8964    0.1107   17.8093 N   0  0  0  0  0  0  0  0  0  0  0  0
   10.9031    0.3959   22.6413 N   0  0  0  0  0  0  0  0  0  0  0  0
    8.1808    1.1370   22.5593 N   0  0  0  0  0  0  0  0  0  0  0  0
    6.9552    2.5549   23.9768 O   0  0  0  0  0  0  0  0  0  0  0  0
   10.2599   -0.9628   20.8383 O   0  0  0  0  0  0  0  0  0  0  0  0
    6.4535   -4.2262   25.4824 O   0  0  0  0  0  0  0  0  0  0  0  0
   12.2295    1.8130   25.1390 Br  0  0  0  0  0  0  0  0  0  0  0  0
   13.8786   -3.0655   22.5286 H   0  0  0  0  0  0  0  0  0  0  0  0
   15.1334   -2.1934   24.4823 H   0  0  0  0  0  0  0  0  0  0  0  0
    4.9090   -0.2292   19.3769 H   0  0  0  0  0  0  0  0  0  0  0  0
    6.2937    0.4435   21.3292 H   0  0  0  0  0  0  0  0  0  0  0  0
    7.8033   -0.9842   26.6393 H   0  0  0  0  0  0  0  0  0  0  0  0
    7.8526   -3.4336   23.0961 H   0  0  0  0  0  0  0  0  0  0  0  0
   11.9056   -1.8497   21.6766 H   0  0  0  0  0  0  0  0  0  0  0  0
    8.0147    1.0369   25.2470 H   0  0  0  0  0  0  0  0  0  0  0  0
    8.0671   -1.4140   21.7013 H   0  0  0  0  0  0  0  0  0  0  0  0
   14.4200   -0.1094   25.5864 H   0  0  0  0  0  0  0  0  0  0  0  0
    6.0174   -0.4200   17.1443 H   0  0  0  0  0  0  0  0  0  0  0  0
    9.6742    0.6609   18.6875 H   0  0  0  0  0  0  0  0  0  0  0  0
    8.1695    5.6032   21.8920 H   0  0  0  0  0  0  0  0  0  0  0  0
    7.9010    4.9760   23.6162 H   0  0  0  0  0  0  0  0  0  0  0  0
    7.9886    3.3589   20.9934 H   0  0  0  0  0  0  0  0  0  0  0  0
    8.9224   -4.8370   24.5426 H   0  0  0  0  0  0  0  0  0  0  0  0
    8.6740   -5.4708   26.1836 H   0  0  0  0  0  0  0  0  0  0  0  0
    9.7792   -4.1315   25.9320 H   0  0  0  0  0  0  0  0  0  0  0  0
    4.4333   -4.1284   25.8650 H   0  0  0  0  0  0  0  0  0  0  0  0
    5.2937   -2.5583   25.8155 H   0  0  0  0  0  0  0  0  0  0  0  0
    5.5045   -3.6518   27.2084 H   0  0  0  0  0  0  0  0  0  0  0  0
    9.4207    2.0057   21.1378 H   0  0  0  0  0  0  0  0  0  0  0  0
    7.6348   -3.3210   26.8780 H   0  0  0  0  0  0  0  0  0  0  0  0
   10.6340    1.2534   23.1191 H   0  0  0  0  0  0  0  0  0  0  0  0
  1  2  1  0  0  0  0
  1  7  2  0  0  0  0
  2 10  2  0  0  0  0
  3  4  2  0  0  0  0
  3 11  1  0  0  0  0
  4 14  1  0  0  0  0
  5  8  2  0  0  0  0
  5 13  1  0  0  0  0
  6  9  1  0  0  0  0
  6 13  2  0  0  0  0
  7 16  1  0  0  0  0
  8 15  1  0  0  0  0
  9 15  2  0  0  0  0
 10 17  1  0  0  0  0
 11 26  2  0  0  0  0
 12 14  2  0  0  0  0
 12 26  1  0  0  0  0
 13 25  1  0  0  0  0
 14 24  1  0  0  0  0
 15 28  1  0  0  0  0
 16 17  2  0  0  0  0
 16 27  1  0  0  0  0
 17 32  1  0  0  0  0
 18 19  2  0  0  0  0
 19 20  1  0  0  0  0
 20 28  1  0  0  0  0
 20 29  2  0  0  0  0
 21 24  1  0  0  0  0
 21 27  1  0  0  0  0
 21 30  2  0  0  0  0
 22 25  1  0  0  0  0
 23 31  1  0  0  0  0
 24 28  1  0  0  0  0
 25 31  1  0  0  0  0
  1 33  1  0  0  0  0
  2 34  1  0  0  0  0
  3 35  1  0  0  0  0
  4 36  1  0  0  0  0
  5 37  1  0  0  0  0
  6 38  1  0  0  0  0
  7 39  1  0  0  0  0
  8 40  1  0  0  0  0
  9 41  1  0  0  0  0
 10 42  1  0  0  0  0
 11 43  1  0  0  0  0
 12 44  1  0  0  0  0
 18 45  1  0  0  0  0
 18 46  1  0  0  0  0
 19 47  1  0  0  0  0
 22 48  1  0  0  0  0
 22 49  1  0  0  0  0
 22 50  1  0  0  0  0
 23 51  1  0  0  0  0
 23 52  1  0  0  0  0
 23 53  1  0  0  0  0
 24 54  1  0  0  0  0
 25 55  1  0  0  0  0
 27 56  1  0  0  0  0
M  END
> <series>
3-aminopyridine-like

> <r_inhibition_at_20_uM>
0.0

> <r_inhibition_at_50_uM>

> <r_IC50>

> <f_inhibition_at_20_uM>
3.0428534

> <f_inhibition_at_50_uM>
9.734811500000001

> <f_avg_IC50>

> <f_avg_pIC50>

> <ASSAYED>
True

> <Hybrid2>
-9.416992

> <docked_fragment>
x0678

> <Mpro-_dock>
-6.82225

> <site>
active-noncovalent

$$$$
LON-WEI-b8d98729-36
  -OEChem-07042000473D

 64 66  0     1  0  0  0  0  0999 V2000
   13.4828   -2.2704   22.3530 C   0  0  0  0  0  0  0  0  0  0  0  0
    5.7053   -0.2670   18.8709 C   0  0  0  0  0  0  0  0  0  0  0  0
    6.4818    0.0532   19.9790 C   0  0  0  0  0  0  0  0  0  0  0  0
    7.6762   -1.6562   25.0836 C   0  0  0  0  0  0  0  0  0  0  0  0
    7.7471   -2.8977   23.0122 C   0  0  0  0  0  0  0  0  0  0  0  0
   12.3222   -1.6169   21.9387 C   0  0  0  0  0  0  0  0  0  0  0  0
    7.7473   -0.4603   24.3693 C   0  0  0  0  0  0  0  0  0  0  0  0
    7.8182   -1.7018   22.2978 C   0  0  0  0  0  0  0  0  0  0  0  0
   14.1646   -1.8292   23.4871 C   0  0  0  0  0  0  0  0  0  0  0  0
    6.3064   -0.2231   17.6233 C   0  0  0  0  0  0  0  0  0  0  0  0
    8.3233    0.4164   18.5185 C   0  0  0  0  0  0  0  0  0  0  0  0
    7.6761   -2.8749   24.4051 C   0  0  0  0  0  0  0  0  0  0  0  0
    7.8167    0.4026   19.8081 C   0  0  0  0  0  0  0  0  0  0  0  0
   12.5252   -0.0811   23.7927 C   0  0  0  0  0  0  0  0  0  0  0  0
    7.8182   -0.4830   22.9764 C   0  0  0  0  0  0  0  0  0  0  0  0
   11.8434   -0.5223   22.6586 C   0  0  0  0  0  0  0  0  0  0  0  0
   13.6858   -0.7346   24.2070 C   0  0  0  0  0  0  0  0  0  0  0  0
    7.5417    4.3703   22.4332 C   0  0  0  0  0  0  0  0  0  0  0  0
    7.5001    3.1572   21.8731 C   0  0  0  0  0  0  0  0  0  0  0  0
    7.2981    1.9441   22.7185 C   0  0  0  0  0  0  0  0  0  0  0  0
    9.8778   -0.1925   21.1179 C   0  0  0  0  0  0  0  0  0  0  0  0
   12.0325    1.0892   24.5808 C   0  0  0  0  0  0  0  0  0  0  0  0
    5.0143   -4.3968   24.9118 C   0  0  0  0  0  0  0  0  0  0  0  0
    7.5243   -4.0029   26.7277 C   0  0  0  0  0  0  0  0  0  0  0  0
    8.8890   -5.0055   24.9178 C   0  0  0  0  0  0  0  0  0  0  0  0
    6.3795   -5.0561   24.7375 C   0  0  0  0  0  0  0  0  0  0  0  0
    8.6878    0.7557   20.9934 C   0  0  2  0  0  0  0  0  0  0  0  0
    7.5977   -4.1950   25.1937 C   0  0  0  0  0  0  0  0  0  0  0  0
    7.6000    0.1116   17.4178 N   0  0  0  0  0  0  0  0  0  0  0  0
   10.6643    0.1270   22.2218 N   0  0  0  0  0  0  0  0  0  0  0  0
    7.8891    0.7130   22.2616 N   0  0  0  0  0  0  0  0  0  0  0  0
    6.6214    2.0398   23.7428 O   0  0  0  0  0  0  0  0  0  0  0  0
   10.0697   -1.0960   20.3084 O   0  0  0  0  0  0  0  0  0  0  0  0
   14.3486   -0.3189   25.2954 F   0  0  0  0  0  0  0  0  0  0  0  0
   13.8557   -3.1227   21.7926 H   0  0  0  0  0  0  0  0  0  0  0  0
    4.6627   -0.5426   18.9804 H   0  0  0  0  0  0  0  0  0  0  0  0
    6.0388    0.0277   20.9709 H   0  0  0  0  0  0  0  0  0  0  0  0
    7.6234   -1.6291   26.1688 H   0  0  0  0  0  0  0  0  0  0  0  0
    7.7483   -3.8428   22.4755 H   0  0  0  0  0  0  0  0  0  0  0  0
   11.7997   -1.9702   21.0532 H   0  0  0  0  0  0  0  0  0  0  0  0
    7.7462    0.4838   24.9084 H   0  0  0  0  0  0  0  0  0  0  0  0
    7.8742   -1.7311   21.2126 H   0  0  0  0  0  0  0  0  0  0  0  0
   15.0682   -2.3379   23.8098 H   0  0  0  0  0  0  0  0  0  0  0  0
    5.7434   -0.4639   16.7275 H   0  0  0  0  0  0  0  0  0  0  0  0
    9.3579    0.6811   18.3232 H   0  0  0  0  0  0  0  0  0  0  0  0
    7.6655    5.2509   21.8116 H   0  0  0  0  0  0  0  0  0  0  0  0
    7.4623    4.5212   23.5041 H   0  0  0  0  0  0  0  0  0  0  0  0
    7.5669    3.0516   20.7965 H   0  0  0  0  0  0  0  0  0  0  0  0
   11.3438    0.7551   25.3649 H   0  0  0  0  0  0  0  0  0  0  0  0
   12.8641    1.6277   25.0509 H   0  0  0  0  0  0  0  0  0  0  0  0
   11.5094    1.8071   23.9374 H   0  0  0  0  0  0  0  0  0  0  0  0
    4.9525   -3.4471   24.3735 H   0  0  0  0  0  0  0  0  0  0  0  0
    4.8403   -4.1832   25.9717 H   0  0  0  0  0  0  0  0  0  0  0  0
    4.2034   -5.0454   24.5686 H   0  0  0  0  0  0  0  0  0  0  0  0
    7.4700   -4.9692   27.2429 H   0  0  0  0  0  0  0  0  0  0  0  0
    6.6471   -3.4223   27.0322 H   0  0  0  0  0  0  0  0  0  0  0  0
    8.4122   -3.4847   27.1095 H   0  0  0  0  0  0  0  0  0  0  0  0
    8.8989   -5.9623   25.4516 H   0  0  0  0  0  0  0  0  0  0  0  0
    9.7792   -4.4507   25.2367 H   0  0  0  0  0  0  0  0  0  0  0  0
    8.9984   -5.2249   23.8490 H   0  0  0  0  0  0  0  0  0  0  0  0
    6.3731   -5.9994   25.3002 H   0  0  0  0  0  0  0  0  0  0  0  0
    6.4863   -5.3436   23.6842 H   0  0  0  0  0  0  0  0  0  0  0  0
    9.0688    1.7791   20.8898 H   0  0  0  0  0  0  0  0  0  0  0  0
   10.3550    0.9202   22.7797 H   0  0  0  0  0  0  0  0  0  0  0  0
  1  6  2  0  0  0  0
  1  9  1  0  0  0  0
  2  3  2  0  0  0  0
  2 10  1  0  0  0  0
  3 13  1  0  0  0  0
  4  7  2  0  0  0  0
  4 12  1  0  0  0  0
  5  8  1  0  0  0  0
  5 12  2  0  0  0  0
  6 16  1  0  0  0  0
  7 15  1  0  0  0  0
  8 15  2  0  0  0  0
  9 17  2  0  0  0  0
 10 29  2  0  0  0  0
 11 13  2  0  0  0  0
 11 29  1  0  0  0  0
 12 28  1  0  0  0  0
 13 27  1  0  0  0  0
 14 16  2  0  0  0  0
 14 17  1  0  0  0  0
 14 22  1  0  0  0  0
 15 31  1  0  0  0  0
 16 30  1  0  0  0  0
 17 34  1  0  0  0  0
 18 19  2  0  0  0  0
 19 20  1  0  0  0  0
 20 31  1  0  0  0  0
 20 32  2  0  0  0  0
 21 27  1  0  0  0  0
 21 30  1  0  0  0  0
 21 33  2  0  0  0  0
 23 26  1  0  0  0  0
 24 28  1  0  0  0  0
 25 28  1  0  0  0  0
 26 28  1  0  0  0  0
 27 31  1  0  0  0  0
  1 35  1  0  0  0  0
  2 36  1  0  0  0  0
  3 37  1  0  0  0  0
  4 38  1  0  0  0  0
  5 39  1  0  0  0  0
  6 40  1  0  0  0  0
  7 41  1  0  0  0  0
  8 42  1  0  0  0  0
  9 43  1  0  0  0  0
 10 44  1  0  0  0  0
 11 45  1  0  0  0  0
 18 46  1  0  0  0  0
 18 47  1  0  0  0  0
 19 48  1  0  0  0  0
 22 49  1  0  0  0  0
 22 50  1  0  0  0  0
 22 51  1  0  0  0  0
 23 52  1  0  0  0  0
 23 53  1  0  0  0  0
 23 54  1  0  0  0  0
 24 55  1  0  0  0  0
 24 56  1  0  0  0  0
 24 57  1  0  0  0  0
 25 58  1  0  0  0  0
 25 59  1  0  0  0  0
 25 60  1  0  0  0  0
 26 61  1  0  0  0  0
 26 62  1  0  0  0  0
 27 63  1  0  0  0  0
 30 64  1  0  0  0  0
M  END
> <series>
3-aminopyridine-like

> <r_inhibition_at_20_uM>
3.7850863275

> <r_inhibition_at_50_uM>

> <r_IC50>

> <f_inhibition_at_20_uM>
16.262435

> <f_inhibition_at_50_uM>
31.816609999999997

> <f_avg_IC50>

> <f_avg_pIC50>

> <ASSAYED>
True

> <Hybrid2>
-9.404097

> <docked_fragment>
x0678

> <Mpro-_dock>
-4.759503

> <site>
active-noncovalent

$$$$
JAN-GHE-5a013bed-4
  -OEChem-07042000473D

 26 27  0     0  0  0  0  0  0999 V2000
   12.4571    1.5928   23.1756 C   0  0  0  0  0  0  0  0  0  0  0  0
   11.0991    1.2840   23.0965 C   0  0  0  0  0  0  0  0  0  0  0  0
   13.4065    0.5710   23.1634 C   0  0  0  0  0  0  0  0  0  0  0  0
   11.6401   -1.0684   22.9931 C   0  0  0  0  0  0  0  0  0  0  0  0
   10.6906   -0.0466   23.0053 C   0  0  0  0  0  0  0  0  0  0  0  0
   12.9980   -0.7596   23.0721 C   0  0  0  0  0  0  0  0  0  0  0  0
    8.0206    0.3112   18.7569 C   0  0  0  0  0  0  0  0  0  0  0  0
    6.0773    0.9785   19.5160 C   0  0  0  0  0  0  0  0  0  0  0  0
    8.8069   -0.4116   21.4645 C   0  0  0  0  0  0  0  0  0  0  0  0
    9.2384   -0.3760   22.9219 C   0  0  0  0  0  0  0  0  0  0  0  0
    7.3312    0.4652   17.6712 N   0  0  0  0  0  0  0  0  0  0  0  0
    6.0977    0.8863   18.1100 N   0  0  0  0  0  0  0  0  0  0  0  0
    7.3438    0.5964   19.8803 N   0  0  0  0  0  0  0  0  0  0  0  0
    7.8282    0.5200   21.1703 N   0  0  0  0  0  0  0  0  0  0  0  0
    5.1403    1.3201   20.2202 O   0  0  0  0  0  0  0  0  0  0  0  0
    9.3150   -1.1917   20.6602 O   0  0  0  0  0  0  0  0  0  0  0  0
   14.1698   -2.0199   23.0582 Cl  0  0  0  0  0  0  0  0  0  0  0  0
   12.7748    2.6290   23.2468 H   0  0  0  0  0  0  0  0  0  0  0  0
   10.3663    2.0866   23.1068 H   0  0  0  0  0  0  0  0  0  0  0  0
   14.4615    0.8264   23.2259 H   0  0  0  0  0  0  0  0  0  0  0  0
   11.3165   -2.1042   22.9212 H   0  0  0  0  0  0  0  0  0  0  0  0
    9.0650   -0.0180   18.8262 H   0  0  0  0  0  0  0  0  0  0  0  0
    9.0129   -1.3624   23.3559 H   0  0  0  0  0  0  0  0  0  0  0  0
    8.6355    0.3485   23.4901 H   0  0  0  0  0  0  0  0  0  0  0  0
    5.3136    1.1002   17.5070 H   0  0  0  0  0  0  0  0  0  0  0  0
    7.4715    1.1381   21.8921 H   0  0  0  0  0  0  0  0  0  0  0  0
  1  2  2  0  0  0  0
  1  3  1  0  0  0  0
  2  5  1  0  0  0  0
  3  6  2  0  0  0  0
  4  5  2  0  0  0  0
  4  6  1  0  0  0  0
  5 10  1  0  0  0  0
  6 17  1  0  0  0  0
  7 11  2  0  0  0  0
  7 13  1  0  0  0  0
  8 12  1  0  0  0  0
  8 13  1  0  0  0  0
  8 15  2  0  0  0  0
  9 10  1  0  0  0  0
  9 14  1  0  0  0  0
  9 16  2  0  0  0  0
 11 12  1  0  0  0  0
 13 14  1  0  0  0  0
  1 18  1  0  0  0  0
  2 19  1  0  0  0  0
  3 20  1  0  0  0  0
  4 21  1  0  0  0  0
  7 22  1  0  0  0  0
 10 23  1  0  0  0  0
 10 24  1  0  0  0  0
 12 25  1  0  0  0  0
 14 26  1  0  0  0  0
M  END
> <series>
3-aminopyridine-like

> <r_inhibition_at_20_uM>

> <r_inhibition_at_50_uM>
7.935

> <r_IC50>

> <f_inhibition_at_20_uM>
0.4051425

> <f_inhibition_at_50_uM>
0.7866452349999999

> <f_avg_IC50>

> <f_avg_pIC50>

> <ASSAYED>
True

> <Hybrid2>
-9.396959

> <docked_fragment>
x0678

> <Mpro-_dock>
-8.225831

> <site>
active-noncovalent

$$$$
JAN-GHE-5a013bed-7
  -OEChem-07042000473D

 24 25  0     0  0  0  0  0  0999 V2000
   12.5696    1.3587   22.5019 C   0  0  0  0  0  0  0  0  0  0  0  0
   11.6021    0.6674   21.7728 C   0  0  0  0  0  0  0  0  0  0  0  0
   13.4932    0.6566   23.2764 C   0  0  0  0  0  0  0  0  0  0  0  0
   12.4816   -1.4281   22.5928 C   0  0  0  0  0  0  0  0  0  0  0  0
    5.8279    1.3767   18.6479 C   0  0  0  0  0  0  0  0  0  0  0  0
   11.5581   -0.7260   21.8182 C   0  0  0  0  0  0  0  0  0  0  0  0
   13.4491   -0.7368   23.3218 C   0  0  0  0  0  0  0  0  0  0  0  0
    7.8417    0.1803   18.9313 C   0  0  0  0  0  0  0  0  0  0  0  0
    9.2199   -0.6909   20.8513 C   0  0  0  0  0  0  0  0  0  0  0  0
   10.5225   -1.4644   21.0394 C   0  0  0  0  0  0  0  0  0  0  0  0
    6.3869    1.0821   17.4934 N   0  0  0  0  0  0  0  0  0  0  0  0
    7.5675    0.3795   17.6597 N   0  0  0  0  0  0  0  0  0  0  0  0
    8.9498   -0.4919   19.4997 N   0  0  0  0  0  0  0  0  0  0  0  0
    8.5452   -0.3194   21.8063 O   0  0  0  0  0  0  0  0  0  0  0  0
    6.6903    0.8278   20.0251 S   0  0  0  0  0  0  0  0  0  0  0  0
   14.5881   -1.6024   24.2785 Cl  0  0  0  0  0  0  0  0  0  0  0  0
   12.6035    2.4438   22.4664 H   0  0  0  0  0  0  0  0  0  0  0  0
   10.8865    1.2227   21.1721 H   0  0  0  0  0  0  0  0  0  0  0  0
   14.2416    1.2086   23.8397 H   0  0  0  0  0  0  0  0  0  0  0  0
   12.4434   -2.5146   22.6245 H   0  0  0  0  0  0  0  0  0  0  0  0
    4.8983    1.9226   18.7246 H   0  0  0  0  0  0  0  0  0  0  0  0
   10.9094   -1.7277   20.0411 H   0  0  0  0  0  0  0  0  0  0  0  0
   10.2840   -2.4212   21.5325 H   0  0  0  0  0  0  0  0  0  0  0  0
    9.6284   -0.8743   18.8444 H   0  0  0  0  0  0  0  0  0  0  0  0
  1  2  2  0  0  0  0
  1  3  1  0  0  0  0
  2  6  1  0  0  0  0
  3  7  2  0  0  0  0
  4  6  2  0  0  0  0
  4  7  1  0  0  0  0
  5 11  2  0  0  0  0
  5 15  1  0  0  0  0
  6 10  1  0  0  0  0
  7 16  1  0  0  0  0
  8 12  2  0  0  0  0
  8 13  1  0  0  0  0
  8 15  1  0  0  0  0
  9 10  1  0  0  0  0
  9 13  1  0  0  0  0
  9 14  2  0  0  0  0
 11 12  1  0  0  0  0
  1 17  1  0  0  0  0
  2 18  1  0  0  0  0
  3 19  1  0  0  0  0
  4 20  1  0  0  0  0
  5 21  1  0  0  0  0
 10 22  1  0  0  0  0
 10 23  1  0  0  0  0
 13 24  1  0  0  0  0
M  END
> <series>
3-aminopyridine-like

> <r_inhibition_at_20_uM>

> <r_inhibition_at_50_uM>
0.0

> <r_IC50>

> <f_inhibition_at_20_uM>
-9.944688000000001

> <f_inhibition_at_50_uM>
-3.0490000000000004

> <f_avg_IC50>

> <f_avg_pIC50>

> <ASSAYED>
True

> <Hybrid2>
-9.365858

> <docked_fragment>
x0678

> <Mpro-_dock>
-6.89732

> <site>
active-noncovalent

$$$$
LON-WEI-b8d98729-16
  -OEChem-07042000473D

 63 65  0     1  0  0  0  0  0999 V2000
    6.3447   -6.3999   23.3823 C   0  0  0  0  0  0  0  0  0  0  0  0
    6.0785    0.4375   19.7298 C   0  0  0  0  0  0  0  0  0  0  0  0
    5.7263   -6.0194   24.5732 C   0  0  0  0  0  0  0  0  0  0  0  0
    6.8398   -0.1144   20.7540 C   0  0  0  0  0  0  0  0  0  0  0  0
    7.0706   -5.4654   22.6437 C   0  0  0  0  0  0  0  0  0  0  0  0
   11.6839    0.1426   23.7942 C   0  0  0  0  0  0  0  0  0  0  0  0
   12.9161   -0.2625   24.3069 C   0  0  0  0  0  0  0  0  0  0  0  0
    6.5597   -3.7698   24.2871 C   0  0  0  0  0  0  0  0  0  0  0  0
   11.7404   -1.6846   22.2145 C   0  0  0  0  0  0  0  0  0  0  0  0
    6.6438    0.5069   18.4666 C   0  0  0  0  0  0  0  0  0  0  0  0
    8.5986   -0.4590   19.1906 C   0  0  0  0  0  0  0  0  0  0  0  0
    5.8338   -4.7043   25.0256 C   0  0  0  0  0  0  0  0  0  0  0  0
    8.1250   -0.5735   20.4876 C   0  0  0  0  0  0  0  0  0  0  0  0
   12.9728   -2.0897   22.7273 C   0  0  0  0  0  0  0  0  0  0  0  0
    7.1781   -4.1503   23.0961 C   0  0  0  0  0  0  0  0  0  0  0  0
   11.0959   -0.5685   22.7480 C   0  0  0  0  0  0  0  0  0  0  0  0
   13.5606   -1.3786   23.7735 C   0  0  0  0  0  0  0  0  0  0  0  0
   10.3863    3.3917   22.8039 C   0  0  0  0  0  0  0  0  0  0  0  0
   10.5380    2.2000   22.2175 C   0  0  0  0  0  0  0  0  0  0  0  0
    9.4227    1.2084   22.2278 C   0  0  0  0  0  0  0  0  0  0  0  0
    8.1241   -1.8591   22.6476 C   0  0  0  0  0  0  0  0  0  0  0  0
   13.6417   -3.2881   22.1365 C   0  0  0  0  0  0  0  0  0  0  0  0
    6.0828   -4.4814   27.5105 C   0  0  0  0  0  0  0  0  0  0  0  0
   14.8689   -2.7124   25.4074 C   0  0  0  0  0  0  0  0  0  0  0  0
   16.0395   -1.2575   23.7456 C   0  0  0  0  0  0  0  0  0  0  0  0
    5.1725   -4.2980   26.2989 C   0  0  0  0  0  0  0  0  0  0  0  0
    8.9781   -1.1796   21.5801 C   0  0  2  0  0  0  0  0  0  0  0  0
    7.8886    0.0714   18.1696 N   0  0  0  0  0  0  0  0  0  0  0  0
    7.9152   -3.2027   22.3470 N   0  0  0  0  0  0  0  0  0  0  0  0
    9.8129   -0.1456   22.2141 N   0  0  0  0  0  0  0  0  0  0  0  0
   14.8075   -1.7744   24.3054 N   0  0  0  0  0  0  0  0  0  0  0  0
    8.2622    1.6197   22.2360 O   0  0  0  0  0  0  0  0  0  0  0  0
    7.6954   -1.2422   23.6192 O   0  0  0  0  0  0  0  0  0  0  0  0
    6.2614   -7.4240   23.0301 H   0  0  0  0  0  0  0  0  0  0  0  0
    5.0743    0.8016   19.9142 H   0  0  0  0  0  0  0  0  0  0  0  0
    5.1625   -6.7542   25.1411 H   0  0  0  0  0  0  0  0  0  0  0  0
    6.4240   -0.1828   21.7556 H   0  0  0  0  0  0  0  0  0  0  0  0
    7.5483   -5.7731   21.7169 H   0  0  0  0  0  0  0  0  0  0  0  0
   11.1906    1.0136   24.2182 H   0  0  0  0  0  0  0  0  0  0  0  0
   13.3643    0.2984   25.1232 H   0  0  0  0  0  0  0  0  0  0  0  0
    6.6414   -2.7445   24.6415 H   0  0  0  0  0  0  0  0  0  0  0  0
   11.2827   -2.2402   21.3989 H   0  0  0  0  0  0  0  0  0  0  0  0
    6.0909    0.9292   17.6339 H   0  0  0  0  0  0  0  0  0  0  0  0
    9.5938   -0.8001   18.9227 H   0  0  0  0  0  0  0  0  0  0  0  0
   11.1918    4.1179   22.7735 H   0  0  0  0  0  0  0  0  0  0  0  0
    9.4787    3.6732   23.3264 H   0  0  0  0  0  0  0  0  0  0  0  0
   11.4559    1.9646   21.6914 H   0  0  0  0  0  0  0  0  0  0  0  0
   14.2925   -2.9887   21.3071 H   0  0  0  0  0  0  0  0  0  0  0  0
   14.2475   -3.8125   22.8853 H   0  0  0  0  0  0  0  0  0  0  0  0
   12.9041   -4.0078   21.7608 H   0  0  0  0  0  0  0  0  0  0  0  0
    6.4216   -5.5197   27.5937 H   0  0  0  0  0  0  0  0  0  0  0  0
    5.5560   -4.2216   28.4341 H   0  0  0  0  0  0  0  0  0  0  0  0
    6.9701   -3.8435   27.4352 H   0  0  0  0  0  0  0  0  0  0  0  0
   15.9198   -2.8937   25.6772 H   0  0  0  0  0  0  0  0  0  0  0  0
   14.3347   -2.2954   26.2738 H   0  0  0  0  0  0  0  0  0  0  0  0
   14.3985   -3.6607   25.1082 H   0  0  0  0  0  0  0  0  0  0  0  0
   16.8963   -1.6800   24.2910 H   0  0  0  0  0  0  0  0  0  0  0  0
   16.1061   -1.5384   22.6842 H   0  0  0  0  0  0  0  0  0  0  0  0
   16.0517   -0.1613   23.8363 H   0  0  0  0  0  0  0  0  0  0  0  0
    4.8515   -3.2451   26.2463 H   0  0  0  0  0  0  0  0  0  0  0  0
    4.2474   -4.8767   26.4531 H   0  0  0  0  0  0  0  0  0  0  0  0
    9.6609   -1.9255   21.1551 H   0  0  0  0  0  0  0  0  0  0  0  0
    8.3426   -3.5429   21.4881 H   0  0  0  0  0  0  0  0  0  0  0  0
  1  3  1  0  0  0  0
  1  5  2  0  0  0  0
  2  4  2  0  0  0  0
  2 10  1  0  0  0  0
  3 12  2  0  0  0  0
  4 13  1  0  0  0  0
  5 15  1  0  0  0  0
  6  7  2  0  0  0  0
  6 16  1  0  0  0  0
  7 17  1  0  0  0  0
  8 12  1  0  0  0  0
  8 15  2  0  0  0  0
  9 14  1  0  0  0  0
  9 16  2  0  0  0  0
 10 28  2  0  0  0  0
 11 13  2  0  0  0  0
 11 28  1  0  0  0  0
 12 26  1  0  0  0  0
 13 27  1  0  0  0  0
 14 17  2  0  0  0  0
 14 22  1  0  0  0  0
 15 29  1  0  0  0  0
 16 30  1  0  0  0  0
 17 31  1  0  0  0  0
 18 19  2  0  0  0  0
 19 20  1  0  0  0  0
 20 30  1  0  0  0  0
 20 32  2  0  0  0  0
 21 27  1  0  0  0  0
 21 29  1  0  0  0  0
 21 33  2  0  0  0  0
 23 26  1  0  0  0  0
 24 31  1  0  0  0  0
 25 31  1  0  0  0  0
 27 30  1  0  0  0  0
  1 34  1  0  0  0  0
  2 35  1  0  0  0  0
  3 36  1  0  0  0  0
  4 37  1  0  0  0  0
  5 38  1  0  0  0  0
  6 39  1  0  0  0  0
  7 40  1  0  0  0  0
  8 41  1  0  0  0  0
  9 42  1  0  0  0  0
 10 43  1  0  0  0  0
 11 44  1  0  0  0  0
 18 45  1  0  0  0  0
 18 46  1  0  0  0  0
 19 47  1  0  0  0  0
 22 48  1  0  0  0  0
 22 49  1  0  0  0  0
 22 50  1  0  0  0  0
 23 51  1  0  0  0  0
 23 52  1  0  0  0  0
 23 53  1  0  0  0  0
 24 54  1  0  0  0  0
 24 55  1  0  0  0  0
 24 56  1  0  0  0  0
 25 57  1  0  0  0  0
 25 58  1  0  0  0  0
 25 59  1  0  0  0  0
 26 60  1  0  0  0  0
 26 61  1  0  0  0  0
 27 62  1  0  0  0  0
 29 63  1  0  0  0  0
M  END
> <series>
3-aminopyridine-like

> <r_inhibition_at_20_uM>
0.0

> <r_inhibition_at_50_uM>

> <r_IC50>

> <f_inhibition_at_20_uM>
7.0478900000000015

> <f_inhibition_at_50_uM>
11.734435000000001

> <f_avg_IC50>

> <f_avg_pIC50>

> <ASSAYED>
True

> <Hybrid2>
-9.358537

> <docked_fragment>
x0678

> <Mpro-_dock>
-6.794945

> <site>
active-noncovalent

$$$$
LON-WEI-b8d98729-22
  -OEChem-07042000473D

 56 58  0     1  0  0  0  0  0999 V2000
    5.9608   -0.0097   19.7285 C   0  0  0  0  0  0  0  0  0  0  0  0
    6.8617    0.3317   20.7310 C   0  0  0  0  0  0  0  0  0  0  0  0
    8.3211   -1.0588   25.8684 C   0  0  0  0  0  0  0  0  0  0  0  0
    8.0699   -2.4782   23.9296 C   0  0  0  0  0  0  0  0  0  0  0  0
    8.4569    0.0529   25.0370 C   0  0  0  0  0  0  0  0  0  0  0  0
    8.2056   -1.3665   23.0981 C   0  0  0  0  0  0  0  0  0  0  0  0
   13.1305   -0.1419   24.1081 C   0  0  0  0  0  0  0  0  0  0  0  0
   12.6126   -1.8623   22.4929 C   0  0  0  0  0  0  0  0  0  0  0  0
   14.2370   -0.8759   24.5351 C   0  0  0  0  0  0  0  0  0  0  0  0
   13.7192   -2.5963   22.9199 C   0  0  0  0  0  0  0  0  0  0  0  0
    6.4551   -0.1922   18.4470 C   0  0  0  0  0  0  0  0  0  0  0  0
    8.6040    0.2734   19.1131 C   0  0  0  0  0  0  0  0  0  0  0  0
    8.1277   -2.3244   25.3147 C   0  0  0  0  0  0  0  0  0  0  0  0
    8.2104    0.4779   20.4258 C   0  0  0  0  0  0  0  0  0  0  0  0
   12.3182   -0.6351   23.0870 C   0  0  0  0  0  0  0  0  0  0  0  0
    8.3991   -0.1009   23.6518 C   0  0  0  0  0  0  0  0  0  0  0  0
   14.5314   -2.1031   23.9410 C   0  0  0  0  0  0  0  0  0  0  0  0
    8.6250    4.6861   22.6875 C   0  0  0  0  0  0  0  0  0  0  0  0
    8.4018    3.4464   22.2398 C   0  0  0  0  0  0  0  0  0  0  0  0
    8.1242    2.3379   23.1997 C   0  0  0  0  0  0  0  0  0  0  0  0
   10.2853   -0.2291   21.6557 C   0  0  0  0  0  0  0  0  0  0  0  0
    9.0269   -4.5964   25.9297 C   0  0  0  0  0  0  0  0  0  0  0  0
    5.6971   -3.3646   26.7300 C   0  0  0  0  0  0  0  0  0  0  0  0
    9.2155    0.8480   21.4941 C   0  0  2  0  0  0  0  0  0  0  0  0
    7.9826   -3.5129   26.2038 C   0  0  2  0  0  0  0  0  0  0  0  0
    7.7581   -0.0590   18.1123 N   0  0  0  0  0  0  0  0  0  0  0  0
   11.1958    0.1098   22.6536 N   0  0  0  0  0  0  0  0  0  0  0  0
    8.5401    1.0567   22.7857 N   0  0  0  0  0  0  0  0  0  0  0  0
    7.5550    2.5987   24.2599 O   0  0  0  0  0  0  0  0  0  0  0  0
   10.2949   -1.2384   20.9561 O   0  0  0  0  0  0  0  0  0  0  0  0
    6.6838   -4.0851   26.0119 O   0  0  0  0  0  0  0  0  0  0  0  0
   15.8970   -3.0087   24.4680 Cl  0  0  0  0  0  0  0  0  0  0  0  0
    4.9051   -0.1293   19.9434 H   0  0  0  0  0  0  0  0  0  0  0  0
    6.5044    0.4814   21.7462 H   0  0  0  0  0  0  0  0  0  0  0  0
    8.3697   -0.9299   26.9465 H   0  0  0  0  0  0  0  0  0  0  0  0
    7.9202   -3.4607   23.4896 H   0  0  0  0  0  0  0  0  0  0  0  0
    8.6069    1.0346   25.4794 H   0  0  0  0  0  0  0  0  0  0  0  0
    8.1600   -1.4979   22.0199 H   0  0  0  0  0  0  0  0  0  0  0  0
   12.9101    0.8130   24.5782 H   0  0  0  0  0  0  0  0  0  0  0  0
   11.9864   -2.2560   21.6965 H   0  0  0  0  0  0  0  0  0  0  0  0
   14.8614   -0.4795   25.3316 H   0  0  0  0  0  0  0  0  0  0  0  0
   13.9367   -3.5511   22.4482 H   0  0  0  0  0  0  0  0  0  0  0  0
    5.7930   -0.4590   17.6298 H   0  0  0  0  0  0  0  0  0  0  0  0
    9.6431    0.3733   18.8152 H   0  0  0  0  0  0  0  0  0  0  0  0
    8.8034    5.4930   21.9845 H   0  0  0  0  0  0  0  0  0  0  0  0
    8.6433    4.9301   23.7440 H   0  0  0  0  0  0  0  0  0  0  0  0
    8.3759    3.2483   21.1746 H   0  0  0  0  0  0  0  0  0  0  0  0
    9.0065   -4.9072   24.8803 H   0  0  0  0  0  0  0  0  0  0  0  0
    8.8585   -5.4801   26.5555 H   0  0  0  0  0  0  0  0  0  0  0  0
   10.0340   -4.2365   26.1676 H   0  0  0  0  0  0  0  0  0  0  0  0
    4.7186   -3.8224   26.5654 H   0  0  0  0  0  0  0  0  0  0  0  0
    5.6862   -2.3251   26.3929 H   0  0  0  0  0  0  0  0  0  0  0  0
    5.9377   -3.3977   27.7953 H   0  0  0  0  0  0  0  0  0  0  0  0
    9.7100    1.7924   21.2356 H   0  0  0  0  0  0  0  0  0  0  0  0
    8.0489   -3.2404   27.2709 H   0  0  0  0  0  0  0  0  0  0  0  0
   11.0352    0.9967   23.1263 H   0  0  0  0  0  0  0  0  0  0  0  0
  1  2  2  0  0  0  0
  1 11  1  0  0  0  0
  2 14  1  0  0  0  0
  3  5  2  0  0  0  0
  3 13  1  0  0  0  0
  4  6  1  0  0  0  0
  4 13  2  0  0  0  0
  5 16  1  0  0  0  0
  6 16  2  0  0  0  0
  7  9  2  0  0  0  0
  7 15  1  0  0  0  0
  8 10  1  0  0  0  0
  8 15  2  0  0  0  0
  9 17  1  0  0  0  0
 10 17  2  0  0  0  0
 11 26  2  0  0  0  0
 12 14  2  0  0  0  0
 12 26  1  0  0  0  0
 13 25  1  0  0  0  0
 14 24  1  0  0  0  0
 15 27  1  0  0  0  0
 16 28  1  0  0  0  0
 17 32  1  0  0  0  0
 18 19  2  0  0  0  0
 19 20  1  0  0  0  0
 20 28  1  0  0  0  0
 20 29  2  0  0  0  0
 21 24  1  0  0  0  0
 21 27  1  0  0  0  0
 21 30  2  0  0  0  0
 22 25  1  0  0  0  0
 23 31  1  0  0  0  0
 24 28  1  0  0  0  0
 25 31  1  0  0  0  0
  1 33  1  0  0  0  0
  2 34  1  0  0  0  0
  3 35  1  0  0  0  0
  4 36  1  0  0  0  0
  5 37  1  0  0  0  0
  6 38  1  0  0  0  0
  7 39  1  0  0  0  0
  8 40  1  0  0  0  0
  9 41  1  0  0  0  0
 10 42  1  0  0  0  0
 11 43  1  0  0  0  0
 12 44  1  0  0  0  0
 18 45  1  0  0  0  0
 18 46  1  0  0  0  0
 19 47  1  0  0  0  0
 22 48  1  0  0  0  0
 22 49  1  0  0  0  0
 22 50  1  0  0  0  0
 23 51  1  0  0  0  0
 23 52  1  0  0  0  0
 23 53  1  0  0  0  0
 24 54  1  0  0  0  0
 25 55  1  0  0  0  0
 27 56  1  0  0  0  0
M  END
> <series>
3-aminopyridine-like

> <r_inhibition_at_20_uM>
0.0

> <r_inhibition_at_50_uM>

> <r_IC50>

> <f_inhibition_at_20_uM>
12.27796

> <f_inhibition_at_50_uM>
26.09074

> <f_avg_IC50>

> <f_avg_pIC50>

> <ASSAYED>
True

> <Hybrid2>
-9.358341

> <docked_fragment>
x0678

> <Mpro-_dock>
-5.627676

> <site>
active-noncovalent

$$$$
LON-WEI-d1c9908a-12
  -OEChem-07042000473D

 61 63  0     1  0  0  0  0  0999 V2000
   13.5413   -1.9992   22.6336 C   0  0  0  0  0  0  0  0  0  0  0  0
   14.2201   -1.4911   23.7411 C   0  0  0  0  0  0  0  0  0  0  0  0
    5.7818   -0.3201   18.9991 C   0  0  0  0  0  0  0  0  0  0  0  0
    6.5441    0.0803   20.0907 C   0  0  0  0  0  0  0  0  0  0  0  0
    7.7190   -1.2876   25.3016 C   0  0  0  0  0  0  0  0  0  0  0  0
    7.8250   -2.6556   23.3130 C   0  0  0  0  0  0  0  0  0  0  0  0
   12.3764   -1.3773   22.1839 C   0  0  0  0  0  0  0  0  0  0  0  0
    7.7793   -0.1380   24.5140 C   0  0  0  0  0  0  0  0  0  0  0  0
    7.8853   -1.5059   22.5254 C   0  0  0  0  0  0  0  0  0  0  0  0
   13.7340   -0.3613   24.3991 C   0  0  0  0  0  0  0  0  0  0  0  0
    6.3927   -0.3458   17.7557 C   0  0  0  0  0  0  0  0  0  0  0  0
    8.3927    0.3780   18.6243 C   0  0  0  0  0  0  0  0  0  0  0  0
    7.7419   -2.5464   24.7011 C   0  0  0  0  0  0  0  0  0  0  0  0
    7.8754    0.4378   19.9083 C   0  0  0  0  0  0  0  0  0  0  0  0
    7.8625   -0.2471   23.1259 C   0  0  0  0  0  0  0  0  0  0  0  0
   11.8903   -0.2475   22.8419 C   0  0  0  0  0  0  0  0  0  0  0  0
   12.5691    0.2605   23.9495 C   0  0  0  0  0  0  0  0  0  0  0  0
    7.5223    4.5580   22.2765 C   0  0  0  0  0  0  0  0  0  0  0  0
    7.5025    3.3116   21.7935 C   0  0  0  0  0  0  0  0  0  0  0  0
    7.3104    2.1512   22.7120 C   0  0  0  0  0  0  0  0  0  0  0  0
    9.9335   -0.0439   21.2686 C   0  0  0  0  0  0  0  0  0  0  0  0
    5.0976   -4.0722   25.2823 C   0  0  0  0  0  0  0  0  0  0  0  0
    7.5861   -3.5284   27.0889 C   0  0  0  0  0  0  0  0  0  0  0  0
    8.9802   -4.6227   25.3561 C   0  0  0  0  0  0  0  0  0  0  0  0
    6.4733   -4.7211   25.1602 C   0  0  0  0  0  0  0  0  0  0  0  0
    8.7314    0.8772   21.0756 C   0  0  2  0  0  0  0  0  0  0  0  0
    7.6753   -3.8154   25.5706 C   0  0  0  0  0  0  0  0  0  0  0  0
    7.6832   -0.0059   17.5394 N   0  0  0  0  0  0  0  0  0  0  0  0
   10.7060    0.3558   22.3562 N   0  0  0  0  0  0  0  0  0  0  0  0
    7.9226    0.9026   22.3379 N   0  0  0  0  0  0  0  0  0  0  0  0
    6.6237    2.3011   23.7230 O   0  0  0  0  0  0  0  0  0  0  0  0
   10.1450   -0.9935   20.5190 O   0  0  0  0  0  0  0  0  0  0  0  0
   11.9507    1.7924   24.8846 Br  0  0  0  0  0  0  0  0  0  0  0  0
   13.9199   -2.8790   22.1215 H   0  0  0  0  0  0  0  0  0  0  0  0
   15.1271   -1.9755   24.0908 H   0  0  0  0  0  0  0  0  0  0  0  0
    4.7422   -0.6034   19.1177 H   0  0  0  0  0  0  0  0  0  0  0  0
    6.0931    0.1107   21.0788 H   0  0  0  0  0  0  0  0  0  0  0  0
    7.6566   -1.1932   26.3826 H   0  0  0  0  0  0  0  0  0  0  0  0
    7.8441   -3.6323   22.8368 H   0  0  0  0  0  0  0  0  0  0  0  0
   11.8573   -1.7837   21.3194 H   0  0  0  0  0  0  0  0  0  0  0  0
    7.7604    0.8379   24.9927 H   0  0  0  0  0  0  0  0  0  0  0  0
    7.9510   -1.6025   21.4446 H   0  0  0  0  0  0  0  0  0  0  0  0
   14.2769    0.0198   25.2602 H   0  0  0  0  0  0  0  0  0  0  0  0
    5.8408   -0.6505   16.8726 H   0  0  0  0  0  0  0  0  0  0  0  0
    9.4251    0.6449   18.4206 H   0  0  0  0  0  0  0  0  0  0  0  0
    7.6390    5.3996   21.6018 H   0  0  0  0  0  0  0  0  0  0  0  0
    7.4317    4.7746   23.3352 H   0  0  0  0  0  0  0  0  0  0  0  0
    7.5800    3.1397   20.7262 H   0  0  0  0  0  0  0  0  0  0  0  0
    5.0269   -3.1591   24.6849 H   0  0  0  0  0  0  0  0  0  0  0  0
    4.9115   -3.7950   26.3253 H   0  0  0  0  0  0  0  0  0  0  0  0
    4.2987   -4.7528   24.9744 H   0  0  0  0  0  0  0  0  0  0  0  0
    7.5411   -4.4612   27.6634 H   0  0  0  0  0  0  0  0  0  0  0  0
    6.6984   -2.9428   27.3495 H   0  0  0  0  0  0  0  0  0  0  0  0
    8.4634   -2.9744   27.4440 H   0  0  0  0  0  0  0  0  0  0  0  0
    8.9990   -5.5439   25.9490 H   0  0  0  0  0  0  0  0  0  0  0  0
    9.8598   -4.0360   25.6461 H   0  0  0  0  0  0  0  0  0  0  0  0
    9.1018   -4.9071   24.3040 H   0  0  0  0  0  0  0  0  0  0  0  0
    6.4754   -5.6272   25.7810 H   0  0  0  0  0  0  0  0  0  0  0  0
    6.5931   -5.0726   24.1279 H   0  0  0  0  0  0  0  0  0  0  0  0
    9.0988    1.8976   20.9108 H   0  0  0  0  0  0  0  0  0  0  0  0
   10.3808    1.1778   22.8607 H   0  0  0  0  0  0  0  0  0  0  0  0
  1  2  1  0  0  0  0
  1  7  2  0  0  0  0
  2 10  2  0  0  0  0
  3  4  2  0  0  0  0
  3 11  1  0  0  0  0
  4 14  1  0  0  0  0
  5  8  2  0  0  0  0
  5 13  1  0  0  0  0
  6  9  1  0  0  0  0
  6 13  2  0  0  0  0
  7 16  1  0  0  0  0
  8 15  1  0  0  0  0
  9 15  2  0  0  0  0
 10 17  1  0  0  0  0
 11 28  2  0  0  0  0
 12 14  2  0  0  0  0
 12 28  1  0  0  0  0
 13 27  1  0  0  0  0
 14 26  1  0  0  0  0
 15 30  1  0  0  0  0
 16 17  2  0  0  0  0
 16 29  1  0  0  0  0
 17 33  1  0  0  0  0
 18 19  2  0  0  0  0
 19 20  1  0  0  0  0
 20 30  1  0  0  0  0
 20 31  2  0  0  0  0
 21 26  1  0  0  0  0
 21 29  1  0  0  0  0
 21 32  2  0  0  0  0
 22 25  1  0  0  0  0
 23 27  1  0  0  0  0
 24 27  1  0  0  0  0
 25 27  1  0  0  0  0
 26 30  1  0  0  0  0
  1 34  1  0  0  0  0
  2 35  1  0  0  0  0
  3 36  1  0  0  0  0
  4 37  1  0  0  0  0
  5 38  1  0  0  0  0
  6 39  1  0  0  0  0
  7 40  1  0  0  0  0
  8 41  1  0  0  0  0
  9 42  1  0  0  0  0
 10 43  1  0  0  0  0
 11 44  1  0  0  0  0
 12 45  1  0  0  0  0
 18 46  1  0  0  0  0
 18 47  1  0  0  0  0
 19 48  1  0  0  0  0
 22 49  1  0  0  0  0
 22 50  1  0  0  0  0
 22 51  1  0  0  0  0
 23 52  1  0  0  0  0
 23 53  1  0  0  0  0
 23 54  1  0  0  0  0
 24 55  1  0  0  0  0
 24 56  1  0  0  0  0
 24 57  1  0  0  0  0
 25 58  1  0  0  0  0
 25 59  1  0  0  0  0
 26 60  1  0  0  0  0
 29 61  1  0  0  0  0
M  END
> <series>
3-aminopyridine-like

> <r_inhibition_at_20_uM>
0.0

> <r_inhibition_at_50_uM>
8.025

> <r_IC50>

> <f_inhibition_at_20_uM>

> <f_inhibition_at_50_uM>
-11.47216

> <f_avg_IC50>

> <f_avg_pIC50>

> <ASSAYED>
True

> <Hybrid2>
-9.350806

> <docked_fragment>
x0678

> <Mpro-_dock>
-5.235539

> <site>
active-noncovalent

$$$$
JAG-UCB-a3ef7265-12
  -OEChem-07042000473D

 35 36  0     0  0  0  0  0  0999 V2000
   13.8136   -0.2408   23.3313 C   0  0  0  0  0  0  0  0  0  0  0  0
   12.1999   -1.8190   22.4700 C   0  0  0  0  0  0  0  0  0  0  0  0
   11.6232    0.5200   22.6527 C   0  0  0  0  0  0  0  0  0  0  0  0
    6.3428    0.6365   18.0363 C   0  0  0  0  0  0  0  0  0  0  0  0
    7.9768   -0.6491   18.4923 C   0  0  0  0  0  0  0  0  0  0  0  0
   13.4679   -1.5465   22.9833 C   0  0  0  0  0  0  0  0  0  0  0  0
   12.8913    0.7925   23.1661 C   0  0  0  0  0  0  0  0  0  0  0  0
   11.2775   -0.7857   22.3047 C   0  0  0  0  0  0  0  0  0  0  0  0
    6.2970    0.4527   19.3981 C   0  0  0  0  0  0  0  0  0  0  0  0
    8.9567   -0.1593   21.5540 C   0  0  0  0  0  0  0  0  0  0  0  0
   14.4541   -2.6512   23.1602 C   0  0  0  0  0  0  0  0  0  0  0  0
   13.2611    2.1886   23.5380 C   0  0  0  0  0  0  0  0  0  0  0  0
    5.3774    0.9713   20.4253 C   0  0  0  0  0  0  0  0  0  0  0  0
    7.7463   -0.8777   20.9869 C   0  0  0  0  0  0  0  0  0  0  0  0
    7.3906   -0.0523   17.4783 N   0  0  0  0  0  0  0  0  0  0  0  0
    7.3495   -0.3733   19.6754 N   0  0  0  0  0  0  0  0  0  0  0  0
   10.0092   -1.0583   21.7911 N   0  0  0  0  0  0  0  0  0  0  0  0
    8.9649    1.0502   21.7582 O   0  0  0  0  0  0  0  0  0  0  0  0
   14.8022   -0.0281   23.7315 H   0  0  0  0  0  0  0  0  0  0  0  0
   11.9323   -2.8381   22.1994 H   0  0  0  0  0  0  0  0  0  0  0  0
   10.9056    1.3274   22.5244 H   0  0  0  0  0  0  0  0  0  0  0  0
    5.6758    1.2292   17.4269 H   0  0  0  0  0  0  0  0  0  0  0  0
    8.8487   -1.2861   18.4316 H   0  0  0  0  0  0  0  0  0  0  0  0
   14.3555   -3.0951   24.1584 H   0  0  0  0  0  0  0  0  0  0  0  0
   14.3063   -3.4409   22.4122 H   0  0  0  0  0  0  0  0  0  0  0  0
   15.4836   -2.2891   23.0406 H   0  0  0  0  0  0  0  0  0  0  0  0
   13.7068    2.7071   22.6803 H   0  0  0  0  0  0  0  0  0  0  0  0
   12.3837    2.7580   23.8711 H   0  0  0  0  0  0  0  0  0  0  0  0
   13.9818    2.2027   24.3661 H   0  0  0  0  0  0  0  0  0  0  0  0
    4.5195    0.2934   20.5736 H   0  0  0  0  0  0  0  0  0  0  0  0
    5.8740    1.0980   21.4038 H   0  0  0  0  0  0  0  0  0  0  0  0
    4.9742    1.9650   20.1605 H   0  0  0  0  0  0  0  0  0  0  0  0
    7.9627   -1.9475   20.8870 H   0  0  0  0  0  0  0  0  0  0  0  0
    6.8938   -0.7631   21.6661 H   0  0  0  0  0  0  0  0  0  0  0  0
    9.8154   -2.0381   21.5541 H   0  0  0  0  0  0  0  0  0  0  0  0
  1  6  2  0  0  0  0
  1  7  1  0  0  0  0
  2  6  1  0  0  0  0
  2  8  2  0  0  0  0
  3  7  2  0  0  0  0
  3  8  1  0  0  0  0
  4  9  2  0  0  0  0
  4 15  1  0  0  0  0
  5 15  2  0  0  0  0
  5 16  1  0  0  0  0
  6 11  1  0  0  0  0
  7 12  1  0  0  0  0
  8 17  1  0  0  0  0
  9 13  1  0  0  0  0
  9 16  1  0  0  0  0
 10 14  1  0  0  0  0
 10 17  1  0  0  0  0
 10 18  2  0  0  0  0
 14 16  1  0  0  0  0
  1 19  1  0  0  0  0
  2 20  1  0  0  0  0
  3 21  1  0  0  0  0
  4 22  1  0  0  0  0
  5 23  1  0  0  0  0
 11 24  1  0  0  0  0
 11 25  1  0  0  0  0
 11 26  1  0  0  0  0
 12 27  1  0  0  0  0
 12 28  1  0  0  0  0
 12 29  1  0  0  0  0
 13 30  1  0  0  0  0
 13 31  1  0  0  0  0
 13 32  1  0  0  0  0
 14 33  1  0  0  0  0
 14 34  1  0  0  0  0
 17 35  1  0  0  0  0
M  END
> <series>
3-aminopyridine-like

> <r_inhibition_at_20_uM>

> <r_inhibition_at_50_uM>
0.0

> <r_IC50>

> <f_inhibition_at_20_uM>
-2.2051125

> <f_inhibition_at_50_uM>
2.7217315

> <f_avg_IC50>

> <f_avg_pIC50>

> <ASSAYED>
True

> <Hybrid2>
-9.317118

> <docked_fragment>
x0678

> <Mpro-_dock>
-7.063284

> <site>
active-noncovalent

$$$$
LON-WEI-b8d98729-43
  -OEChem-07042000473D

 61 63  0     1  0  0  0  0  0999 V2000
    6.2877    0.2681   19.9354 C   0  0  0  0  0  0  0  0  0  0  0  0
    7.1456   -0.2025   20.9233 C   0  0  0  0  0  0  0  0  0  0  0  0
    7.2698   -3.6305   24.6631 C   0  0  0  0  0  0  0  0  0  0  0  0
    6.6289   -4.5227   25.5226 C   0  0  0  0  0  0  0  0  0  0  0  0
    7.0410   -6.3212   23.9630 C   0  0  0  0  0  0  0  0  0  0  0  0
   12.0711   -1.6178   22.6671 C   0  0  0  0  0  0  0  0  0  0  0  0
    6.7473    0.2782   18.6283 C   0  0  0  0  0  0  0  0  0  0  0  0
    8.7830   -0.5916   19.2428 C   0  0  0  0  0  0  0  0  0  0  0  0
    8.4189   -0.6423   20.5787 C   0  0  0  0  0  0  0  0  0  0  0  0
    7.6819   -5.4290   23.1034 C   0  0  0  0  0  0  0  0  0  0  0  0
    7.7962   -4.0836   23.4534 C   0  0  0  0  0  0  0  0  0  0  0  0
    6.5145   -5.8681   25.1726 C   0  0  0  0  0  0  0  0  0  0  0  0
   13.3355   -1.4054   23.1491 C   0  0  0  0  0  0  0  0  0  0  0  0
   11.5229   -0.3260   22.5863 C   0  0  0  0  0  0  0  0  0  0  0  0
   10.2020    3.5931   22.7656 C   0  0  0  0  0  0  0  0  0  0  0  0
   10.1550    2.2940   23.0773 C   0  0  0  0  0  0  0  0  0  0  0  0
    9.6965    1.2939   22.0690 C   0  0  0  0  0  0  0  0  0  0  0  0
    8.6315   -1.7984   22.8005 C   0  0  0  0  0  0  0  0  0  0  0  0
    8.2360   -5.9426   21.8142 C   0  0  0  0  0  0  0  0  0  0  0  0
   14.1191   -3.7987   23.2137 C   0  0  0  0  0  0  0  0  0  0  0  0
   14.8745   -2.1799   24.9871 C   0  0  0  0  0  0  0  0  0  0  0  0
   15.7958   -2.0415   22.6821 C   0  0  0  0  0  0  0  0  0  0  0  0
    5.3752   -6.2083   27.2322 C   0  0  0  0  0  0  0  0  0  0  0  0
    9.3754   -1.1605   21.6299 C   0  0  2  0  0  0  0  0  0  0  0  0
   14.5131   -2.3322   23.4937 C   0  0  0  0  0  0  0  0  0  0  0  0
    7.9772   -0.1410   18.2552 N   0  0  0  0  0  0  0  0  0  0  0  0
   12.3817    0.6155   22.9875 N   0  0  0  0  0  0  0  0  0  0  0  0
    8.4410   -3.1625   22.5942 N   0  0  0  0  0  0  0  0  0  0  0  0
   10.2457   -0.0440   22.1459 N   0  0  0  0  0  0  0  0  0  0  0  0
    8.9001    1.6491   21.1996 O   0  0  0  0  0  0  0  0  0  0  0  0
    8.2632   -1.1372   23.7676 O   0  0  0  0  0  0  0  0  0  0  0  0
   13.5328   -0.0765   23.3443 O   0  0  0  0  0  0  0  0  0  0  0  0
    5.8896   -6.7388   26.0117 O   0  0  0  0  0  0  0  0  0  0  0  0
    5.2907    0.6157   20.1808 H   0  0  0  0  0  0  0  0  0  0  0  0
    6.8139   -0.2229   21.9578 H   0  0  0  0  0  0  0  0  0  0  0  0
    7.3520   -2.5839   24.9462 H   0  0  0  0  0  0  0  0  0  0  0  0
    6.2213   -4.1637   26.4637 H   0  0  0  0  0  0  0  0  0  0  0  0
    6.9498   -7.3706   23.6928 H   0  0  0  0  0  0  0  0  0  0  0  0
   11.6179   -2.5647   22.4134 H   0  0  0  0  0  0  0  0  0  0  0  0
    6.1164    0.6361   17.8213 H   0  0  0  0  0  0  0  0  0  0  0  0
    9.7636   -0.9214   18.9139 H   0  0  0  0  0  0  0  0  0  0  0  0
   10.5582    4.3135   23.4946 H   0  0  0  0  0  0  0  0  0  0  0  0
    9.8886    3.9727   21.7994 H   0  0  0  0  0  0  0  0  0  0  0  0
   10.4931    1.9544   24.0495 H   0  0  0  0  0  0  0  0  0  0  0  0
    7.4802   -5.8759   21.0234 H   0  0  0  0  0  0  0  0  0  0  0  0
    9.1175   -5.3679   21.5056 H   0  0  0  0  0  0  0  0  0  0  0  0
    8.5529   -6.9884   21.9087 H   0  0  0  0  0  0  0  0  0  0  0  0
   14.9429   -4.4817   23.4516 H   0  0  0  0  0  0  0  0  0  0  0  0
   13.2570   -4.1175   23.8098 H   0  0  0  0  0  0  0  0  0  0  0  0
   13.8604   -3.9428   22.1580 H   0  0  0  0  0  0  0  0  0  0  0  0
   15.7113   -2.8238   25.2790 H   0  0  0  0  0  0  0  0  0  0  0  0
   15.1672   -1.1494   25.2199 H   0  0  0  0  0  0  0  0  0  0  0  0
   14.0225   -2.4374   25.6274 H   0  0  0  0  0  0  0  0  0  0  0  0
   16.6049   -2.7266   22.9629 H   0  0  0  0  0  0  0  0  0  0  0  0
   15.6291   -2.1650   21.6056 H   0  0  0  0  0  0  0  0  0  0  0  0
   16.1616   -1.0229   22.8566 H   0  0  0  0  0  0  0  0  0  0  0  0
    4.9023   -7.0082   27.8073 H   0  0  0  0  0  0  0  0  0  0  0  0
    4.6467   -5.4242   27.0113 H   0  0  0  0  0  0  0  0  0  0  0  0
    6.1994   -5.7847   27.8110 H   0  0  0  0  0  0  0  0  0  0  0  0
   10.0448   -1.9118   21.1931 H   0  0  0  0  0  0  0  0  0  0  0  0
    8.8083   -3.5410   21.7237 H   0  0  0  0  0  0  0  0  0  0  0  0
  1  2  2  0  0  0  0
  1  7  1  0  0  0  0
  2  9  1  0  0  0  0
  3  4  2  0  0  0  0
  3 11  1  0  0  0  0
  4 12  1  0  0  0  0
  5 10  1  0  0  0  0
  5 12  2  0  0  0  0
  6 13  2  0  0  0  0
  6 14  1  0  0  0  0
  7 26  2  0  0  0  0
  8  9  2  0  0  0  0
  8 26  1  0  0  0  0
  9 24  1  0  0  0  0
 10 11  2  0  0  0  0
 10 19  1  0  0  0  0
 11 28  1  0  0  0  0
 12 33  1  0  0  0  0
 13 25  1  0  0  0  0
 13 32  1  0  0  0  0
 14 27  2  0  0  0  0
 14 29  1  0  0  0  0
 15 16  2  0  0  0  0
 16 17  1  0  0  0  0
 17 29  1  0  0  0  0
 17 30  2  0  0  0  0
 18 24  1  0  0  0  0
 18 28  1  0  0  0  0
 18 31  2  0  0  0  0
 20 25  1  0  0  0  0
 21 25  1  0  0  0  0
 22 25  1  0  0  0  0
 23 33  1  0  0  0  0
 24 29  1  0  0  0  0
 27 32  1  0  0  0  0
  1 34  1  0  0  0  0
  2 35  1  0  0  0  0
  3 36  1  0  0  0  0
  4 37  1  0  0  0  0
  5 38  1  0  0  0  0
  6 39  1  0  0  0  0
  7 40  1  0  0  0  0
  8 41  1  0  0  0  0
 15 42  1  0  0  0  0
 15 43  1  0  0  0  0
 16 44  1  0  0  0  0
 19 45  1  0  0  0  0
 19 46  1  0  0  0  0
 19 47  1  0  0  0  0
 20 48  1  0  0  0  0
 20 49  1  0  0  0  0
 20 50  1  0  0  0  0
 21 51  1  0  0  0  0
 21 52  1  0  0  0  0
 21 53  1  0  0  0  0
 22 54  1  0  0  0  0
 22 55  1  0  0  0  0
 22 56  1  0  0  0  0
 23 57  1  0  0  0  0
 23 58  1  0  0  0  0
 23 59  1  0  0  0  0
 24 60  1  0  0  0  0
 28 61  1  0  0  0  0
M  END
> <series>
3-aminopyridine-like

> <r_inhibition_at_20_uM>
14.308904645

> <r_inhibition_at_50_uM>

> <r_IC50>

> <f_inhibition_at_20_uM>
12.87613

> <f_inhibition_at_50_uM>
23.43133

> <f_avg_IC50>

> <f_avg_pIC50>

> <ASSAYED>
True

> <Hybrid2>
-9.313096

> <docked_fragment>
x0678

> <Mpro-_dock>
-4.562419

> <site>
active-noncovalent

$$$$
LON-WEI-b8d98729-30
  -OEChem-07042000473D

 64 66  0     1  0  0  0  0  0999 V2000
    6.2956    0.5697   19.4449 C   0  0  0  0  0  0  0  0  0  0  0  0
    7.0087    0.0485   20.5188 C   0  0  0  0  0  0  0  0  0  0  0  0
   11.7272    0.3722   23.7443 C   0  0  0  0  0  0  0  0  0  0  0  0
   12.9333   -0.0251   24.3215 C   0  0  0  0  0  0  0  0  0  0  0  0
    7.0805   -3.7132   24.3925 C   0  0  0  0  0  0  0  0  0  0  0  0
    6.3173   -4.6012   25.1504 C   0  0  0  0  0  0  0  0  0  0  0  0
   11.8290   -1.5116   22.2351 C   0  0  0  0  0  0  0  0  0  0  0  0
    5.8109   -5.8679   23.1564 C   0  0  0  0  0  0  0  0  0  0  0  0
    6.9126    0.5881   18.2045 C   0  0  0  0  0  0  0  0  0  0  0  0
    8.8260   -0.3685   19.0424 C   0  0  0  0  0  0  0  0  0  0  0  0
    8.2988   -0.4315   20.3222 C   0  0  0  0  0  0  0  0  0  0  0  0
   13.0351   -1.9089   22.8122 C   0  0  0  0  0  0  0  0  0  0  0  0
    6.5741   -4.9798   22.3985 C   0  0  0  0  0  0  0  0  0  0  0  0
   11.1750   -0.3711   22.7011 C   0  0  0  0  0  0  0  0  0  0  0  0
   13.5872   -1.1656   23.8555 C   0  0  0  0  0  0  0  0  0  0  0  0
    7.2089   -3.9024   23.0165 C   0  0  0  0  0  0  0  0  0  0  0  0
    5.6825   -5.6786   24.5325 C   0  0  0  0  0  0  0  0  0  0  0  0
   10.5053    3.5948   22.5854 C   0  0  0  0  0  0  0  0  0  0  0  0
   10.6682    2.3813   22.0489 C   0  0  0  0  0  0  0  0  0  0  0  0
    9.5431    1.4008   22.0490 C   0  0  0  0  0  0  0  0  0  0  0  0
    8.1964   -1.6376   22.5251 C   0  0  0  0  0  0  0  0  0  0  0  0
   13.7149   -3.1340   22.2929 C   0  0  0  0  0  0  0  0  0  0  0  0
    6.6937   -5.2074   20.9265 C   0  0  0  0  0  0  0  0  0  0  0  0
   14.8137   -2.4508   25.5887 C   0  0  0  0  0  0  0  0  0  0  0  0
   16.0663   -1.0679   23.9252 C   0  0  0  0  0  0  0  0  0  0  0  0
    4.3168   -7.6250   24.5766 C   0  0  0  0  0  0  0  0  0  0  0  0
    9.1002   -1.0051   21.4698 C   0  0  2  0  0  0  0  0  0  0  0  0
    8.1639    0.1308   17.9747 N   0  0  0  0  0  0  0  0  0  0  0  0
    7.9858   -2.9894   22.2646 N   0  0  0  0  0  0  0  0  0  0  0  0
    9.9193    0.0436   22.1000 N   0  0  0  0  0  0  0  0  0  0  0  0
   14.8072   -1.5530   24.4521 N   0  0  0  0  0  0  0  0  0  0  0  0
    8.3876    1.8225   21.9947 O   0  0  0  0  0  0  0  0  0  0  0  0
    7.7349   -0.9820   23.4554 O   0  0  0  0  0  0  0  0  0  0  0  0
    4.9383   -6.5455   25.2723 O   0  0  0  0  0  0  0  0  0  0  0  0
    5.2886    0.9493   19.5748 H   0  0  0  0  0  0  0  0  0  0  0  0
    6.5517    0.0204   21.5042 H   0  0  0  0  0  0  0  0  0  0  0  0
   11.2263    1.2625   24.1161 H   0  0  0  0  0  0  0  0  0  0  0  0
   13.3536    0.5611   25.1349 H   0  0  0  0  0  0  0  0  0  0  0  0
    7.5698   -2.8764   24.8851 H   0  0  0  0  0  0  0  0  0  0  0  0
    6.2215   -4.4486   26.2220 H   0  0  0  0  0  0  0  0  0  0  0  0
   11.3990   -2.0923   21.4218 H   0  0  0  0  0  0  0  0  0  0  0  0
    5.3145   -6.7085   22.6775 H   0  0  0  0  0  0  0  0  0  0  0  0
    6.3986    0.9847   17.3351 H   0  0  0  0  0  0  0  0  0  0  0  0
    9.8277   -0.7281   18.8281 H   0  0  0  0  0  0  0  0  0  0  0  0
   11.3190    4.3121   22.5620 H   0  0  0  0  0  0  0  0  0  0  0  0
    9.5802    3.9033   23.0597 H   0  0  0  0  0  0  0  0  0  0  0  0
   11.6043    2.1186   21.5698 H   0  0  0  0  0  0  0  0  0  0  0  0
   14.4021   -2.8708   21.4808 H   0  0  0  0  0  0  0  0  0  0  0  0
   14.2842   -3.6362   23.0844 H   0  0  0  0  0  0  0  0  0  0  0  0
   12.9858   -3.8602   21.9134 H   0  0  0  0  0  0  0  0  0  0  0  0
    5.8909   -4.6836   20.3954 H   0  0  0  0  0  0  0  0  0  0  0  0
    7.6577   -4.8469   20.5475 H   0  0  0  0  0  0  0  0  0  0  0  0
    6.6345   -6.2757   20.6853 H   0  0  0  0  0  0  0  0  0  0  0  0
   15.8508   -2.6316   25.9078 H   0  0  0  0  0  0  0  0  0  0  0  0
   14.2491   -1.9978   26.4169 H   0  0  0  0  0  0  0  0  0  0  0  0
   14.3460   -3.4051   25.3047 H   0  0  0  0  0  0  0  0  0  0  0  0
   16.8957   -1.4780   24.5202 H   0  0  0  0  0  0  0  0  0  0  0  0
   16.1731   -1.3878   22.8782 H   0  0  0  0  0  0  0  0  0  0  0  0
   16.0863    0.0307   23.9769 H   0  0  0  0  0  0  0  0  0  0  0  0
    3.7546   -8.2397   25.2838 H   0  0  0  0  0  0  0  0  0  0  0  0
    5.0813   -8.2283   24.0806 H   0  0  0  0  0  0  0  0  0  0  0  0
    3.6334   -7.2184   23.8273 H   0  0  0  0  0  0  0  0  0  0  0  0
    9.7920   -1.7721   21.1004 H   0  0  0  0  0  0  0  0  0  0  0  0
    8.4442   -3.3644   21.4369 H   0  0  0  0  0  0  0  0  0  0  0  0
  1  2  2  0  0  0  0
  1  9  1  0  0  0  0
  2 11  1  0  0  0  0
  3  4  2  0  0  0  0
  3 14  1  0  0  0  0
  4 15  1  0  0  0  0
  5  6  2  0  0  0  0
  5 16  1  0  0  0  0
  6 17  1  0  0  0  0
  7 12  1  0  0  0  0
  7 14  2  0  0  0  0
  8 13  1  0  0  0  0
  8 17  2  0  0  0  0
  9 28  2  0  0  0  0
 10 11  2  0  0  0  0
 10 28  1  0  0  0  0
 11 27  1  0  0  0  0
 12 15  2  0  0  0  0
 12 22  1  0  0  0  0
 13 16  2  0  0  0  0
 13 23  1  0  0  0  0
 14 30  1  0  0  0  0
 15 31  1  0  0  0  0
 16 29  1  0  0  0  0
 17 34  1  0  0  0  0
 18 19  2  0  0  0  0
 19 20  1  0  0  0  0
 20 30  1  0  0  0  0
 20 32  2  0  0  0  0
 21 27  1  0  0  0  0
 21 29  1  0  0  0  0
 21 33  2  0  0  0  0
 24 31  1  0  0  0  0
 25 31  1  0  0  0  0
 26 34  1  0  0  0  0
 27 30  1  0  0  0  0
  1 35  1  0  0  0  0
  2 36  1  0  0  0  0
  3 37  1  0  0  0  0
  4 38  1  0  0  0  0
  5 39  1  0  0  0  0
  6 40  1  0  0  0  0
  7 41  1  0  0  0  0
  8 42  1  0  0  0  0
  9 43  1  0  0  0  0
 10 44  1  0  0  0  0
 18 45  1  0  0  0  0
 18 46  1  0  0  0  0
 19 47  1  0  0  0  0
 22 48  1  0  0  0  0
 22 49  1  0  0  0  0
 22 50  1  0  0  0  0
 23 51  1  0  0  0  0
 23 52  1  0  0  0  0
 23 53  1  0  0  0  0
 24 54  1  0  0  0  0
 24 55  1  0  0  0  0
 24 56  1  0  0  0  0
 25 57  1  0  0  0  0
 25 58  1  0  0  0  0
 25 59  1  0  0  0  0
 26 60  1  0  0  0  0
 26 61  1  0  0  0  0
 26 62  1  0  0  0  0
 27 63  1  0  0  0  0
 29 64  1  0  0  0  0
M  END
> <series>
3-aminopyridine-like

> <r_inhibition_at_20_uM>
0.0

> <r_inhibition_at_50_uM>

> <r_IC50>

> <f_inhibition_at_20_uM>
2.5093175

> <f_inhibition_at_50_uM>
7.00835

> <f_avg_IC50>

> <f_avg_pIC50>

> <ASSAYED>
True

> <Hybrid2>
-9.300677

> <docked_fragment>
x0678

> <Mpro-_dock>
-7.302716

> <site>
active-noncovalent

$$$$
DAR-DIA-23aa0b97-14
  -OEChem-07042000473D

 27 28  0     0  0  0  0  0  0999 V2000
   14.2611   -1.7360   22.1523 C   0  0  0  0  0  0  0  0  0  0  0  0
    5.8772    1.2377   19.4770 C   0  0  0  0  0  0  0  0  0  0  0  0
   12.9893   -1.2757   21.8114 C   0  0  0  0  0  0  0  0  0  0  0  0
    6.7797    1.0369   20.5154 C   0  0  0  0  0  0  0  0  0  0  0  0
   14.6848   -1.6951   23.4806 C   0  0  0  0  0  0  0  0  0  0  0  0
   12.5649   -0.7334   24.1273 C   0  0  0  0  0  0  0  0  0  0  0  0
    6.2684    0.8744   18.1984 C   0  0  0  0  0  0  0  0  0  0  0  0
    8.3231    0.1571   18.9343 C   0  0  0  0  0  0  0  0  0  0  0  0
   12.1412   -0.7743   22.7989 C   0  0  0  0  0  0  0  0  0  0  0  0
    8.0283    0.4869   20.2474 C   0  0  0  0  0  0  0  0  0  0  0  0
   13.8367   -1.1938   24.4681 C   0  0  0  0  0  0  0  0  0  0  0  0
   10.2596   -0.2695   21.1791 C   0  0  0  0  0  0  0  0  0  0  0  0
    7.4724    0.3374   17.8992 N   0  0  0  0  0  0  0  0  0  0  0  0
   10.8697   -0.3133   22.4566 N   0  0  0  0  0  0  0  0  0  0  0  0
    8.9678    0.2709   21.2830 N   0  0  0  0  0  0  0  0  0  0  0  0
   10.7882   -0.6496   20.1393 O   0  0  0  0  0  0  0  0  0  0  0  0
   14.3594   -1.1433   26.1071 Cl  0  0  0  0  0  0  0  0  0  0  0  0
   14.9214   -2.1263   21.3832 H   0  0  0  0  0  0  0  0  0  0  0  0
    4.8984    1.6650   19.6627 H   0  0  0  0  0  0  0  0  0  0  0  0
   12.6700   -1.3124   20.7728 H   0  0  0  0  0  0  0  0  0  0  0  0
    6.5002    1.3125   21.5289 H   0  0  0  0  0  0  0  0  0  0  0  0
   15.6784   -2.0576   23.7310 H   0  0  0  0  0  0  0  0  0  0  0  0
   11.9008   -0.3421   24.8949 H   0  0  0  0  0  0  0  0  0  0  0  0
    5.6010    1.0116   17.3539 H   0  0  0  0  0  0  0  0  0  0  0  0
    9.2813   -0.2759   18.6625 H   0  0  0  0  0  0  0  0  0  0  0  0
   10.3012    0.0410   23.2331 H   0  0  0  0  0  0  0  0  0  0  0  0
    8.6641    0.5433   22.2145 H   0  0  0  0  0  0  0  0  0  0  0  0
  1  3  2  0  0  0  0
  1  5  1  0  0  0  0
  2  4  2  0  0  0  0
  2  7  1  0  0  0  0
  3  9  1  0  0  0  0
  4 10  1  0  0  0  0
  5 11  2  0  0  0  0
  6  9  2  0  0  0  0
  6 11  1  0  0  0  0
  7 13  2  0  0  0  0
  8 10  2  0  0  0  0
  8 13  1  0  0  0  0
  9 14  1  0  0  0  0
 10 15  1  0  0  0  0
 11 17  1  0  0  0  0
 12 14  1  0  0  0  0
 12 15  1  0  0  0  0
 12 16  2  0  0  0  0
  1 18  1  0  0  0  0
  2 19  1  0  0  0  0
  3 20  1  0  0  0  0
  4 21  1  0  0  0  0
  5 22  1  0  0  0  0
  6 23  1  0  0  0  0
  7 24  1  0  0  0  0
  8 25  1  0  0  0  0
 14 26  1  0  0  0  0
 15 27  1  0  0  0  0
M  END
> <series>
3-aminopyridine-like

> <r_inhibition_at_20_uM>

> <r_inhibition_at_50_uM>
44.05982376331718

> <r_IC50>

> <f_inhibition_at_20_uM>
12.85786

> <f_inhibition_at_50_uM>
30.92173

> <f_avg_IC50>

> <f_avg_pIC50>

> <ASSAYED>
True

> <Hybrid2>
-9.273904

> <docked_fragment>
x0678

> <Mpro-_dock>
-5.554714

> <site>
active-noncovalent

$$$$
LON-WEI-b8d98729-20
  -OEChem-07042000473D

 64 66  0     1  0  0  0  0  0999 V2000
   14.4132   -1.8966   23.0199 C   0  0  0  0  0  0  0  0  0  0  0  0
    5.6973   -0.0064   18.9480 C   0  0  0  0  0  0  0  0  0  0  0  0
   14.0198   -1.7726   21.6875 C   0  0  0  0  0  0  0  0  0  0  0  0
   13.6249   -1.3516   24.0335 C   0  0  0  0  0  0  0  0  0  0  0  0
    6.4429    0.2089   20.1017 C   0  0  0  0  0  0  0  0  0  0  0  0
    7.4596   -1.7735   22.5273 C   0  0  0  0  0  0  0  0  0  0  0  0
    6.3625    0.0132   17.7328 C   0  0  0  0  0  0  0  0  0  0  0  0
    8.3823    0.4335   18.7436 C   0  0  0  0  0  0  0  0  0  0  0  0
    7.8117    0.4339   20.0062 C   0  0  0  0  0  0  0  0  0  0  0  0
   12.8382   -1.1036   21.3685 C   0  0  0  0  0  0  0  0  0  0  0  0
   12.4432   -0.6825   23.7146 C   0  0  0  0  0  0  0  0  0  0  0  0
   12.0498   -0.5585   22.3821 C   0  0  0  0  0  0  0  0  0  0  0  0
    7.2429   -2.6501   23.5623 C   0  0  0  0  0  0  0  0  0  0  0  0
    7.5607   -0.5141   23.1481 C   0  0  0  0  0  0  0  0  0  0  0  0
    7.7883    4.3526   22.7052 C   0  0  0  0  0  0  0  0  0  0  0  0
    7.6561    3.1595   22.1169 C   0  0  0  0  0  0  0  0  0  0  0  0
    7.2962    1.9574   22.9248 C   0  0  0  0  0  0  0  0  0  0  0  0
    9.7385   -0.3896   21.3946 C   0  0  0  0  0  0  0  0  0  0  0  0
   12.4432   -0.9870   19.9318 C   0  0  0  0  0  0  0  0  0  0  0  0
   10.8180   -1.1788   25.5582 C   0  0  0  0  0  0  0  0  0  0  0  0
    8.2861   -4.8737   23.0026 C   0  0  0  0  0  0  0  0  0  0  0  0
    5.8021   -4.5517   22.7533 C   0  0  0  0  0  0  0  0  0  0  0  0
    6.8253   -4.7485   25.0107 C   0  0  0  0  0  0  0  0  0  0  0  0
   11.6203   -0.1100   24.8229 C   0  0  0  0  0  0  0  0  0  0  0  0
    8.6507    0.6707   21.2426 C   0  0  2  0  0  0  0  0  0  0  0  0
    7.0422   -4.1743   23.5922 C   0  0  0  0  0  0  0  0  0  0  0  0
    7.6906    0.2284   17.6004 N   0  0  0  0  0  0  0  0  0  0  0  0
    7.4196   -0.5803   24.4747 N   0  0  0  0  0  0  0  0  0  0  0  0
    7.2276   -1.8919   24.6959 N   0  0  0  0  0  0  0  0  0  0  0  0
   10.8512    0.1206   22.0586 N   0  0  0  0  0  0  0  0  0  0  0  0
    7.7840    0.6707   22.4746 N   0  0  0  0  0  0  0  0  0  0  0  0
    6.5799    2.1005   23.9160 O   0  0  0  0  0  0  0  0  0  0  0  0
    9.5957   -1.5274   20.9549 O   0  0  0  0  0  0  0  0  0  0  0  0
   15.3332   -2.4178   23.2685 H   0  0  0  0  0  0  0  0  0  0  0  0
    4.6291   -0.1841   18.9985 H   0  0  0  0  0  0  0  0  0  0  0  0
   14.6412   -2.2003   20.9050 H   0  0  0  0  0  0  0  0  0  0  0  0
   13.9402   -1.4543   25.0685 H   0  0  0  0  0  0  0  0  0  0  0  0
    5.9496    0.1993   21.0698 H   0  0  0  0  0  0  0  0  0  0  0  0
    7.5331   -2.0155   21.4766 H   0  0  0  0  0  0  0  0  0  0  0  0
    5.8257   -0.1490   16.8039 H   0  0  0  0  0  0  0  0  0  0  0  0
    9.4458    0.6035   18.6067 H   0  0  0  0  0  0  0  0  0  0  0  0
    8.0272    5.2276   22.1098 H   0  0  0  0  0  0  0  0  0  0  0  0
    7.6719    4.4917   23.7743 H   0  0  0  0  0  0  0  0  0  0  0  0
    7.7647    3.0668   21.0425 H   0  0  0  0  0  0  0  0  0  0  0  0
   11.8233   -1.8417   19.6388 H   0  0  0  0  0  0  0  0  0  0  0  0
   11.8775   -0.0652   19.7509 H   0  0  0  0  0  0  0  0  0  0  0  0
   13.3253   -0.9542   19.2809 H   0  0  0  0  0  0  0  0  0  0  0  0
   10.1645   -1.7244   24.8690 H   0  0  0  0  0  0  0  0  0  0  0  0
   10.1912   -0.7258   26.3327 H   0  0  0  0  0  0  0  0  0  0  0  0
   11.4802   -1.9061   26.0400 H   0  0  0  0  0  0  0  0  0  0  0  0
    8.1685   -5.9636   23.0123 H   0  0  0  0  0  0  0  0  0  0  0  0
    8.4726   -4.5813   21.9634 H   0  0  0  0  0  0  0  0  0  0  0  0
    9.1861   -4.6300   23.5795 H   0  0  0  0  0  0  0  0  0  0  0  0
    5.6196   -5.6319   22.7460 H   0  0  0  0  0  0  0  0  0  0  0  0
    4.8970   -4.0768   23.1500 H   0  0  0  0  0  0  0  0  0  0  0  0
    5.9180   -4.2306   21.7114 H   0  0  0  0  0  0  0  0  0  0  0  0
    6.6873   -5.8360   24.9798 H   0  0  0  0  0  0  0  0  0  0  0  0
    7.6852   -4.5518   25.6617 H   0  0  0  0  0  0  0  0  0  0  0  0
    5.9330   -4.3243   25.4857 H   0  0  0  0  0  0  0  0  0  0  0  0
   12.2647    0.4180   25.5424 H   0  0  0  0  0  0  0  0  0  0  0  0
   10.9315    0.6539   24.4305 H   0  0  0  0  0  0  0  0  0  0  0  0
    9.1308    1.6556   21.1895 H   0  0  0  0  0  0  0  0  0  0  0  0
    7.0921   -2.2011   25.6505 H   0  0  0  0  0  0  0  0  0  0  0  0
   10.7959    1.0959   22.3447 H   0  0  0  0  0  0  0  0  0  0  0  0
  1  3  1  0  0  0  0
  1  4  2  0  0  0  0
  2  5  2  0  0  0  0
  2  7  1  0  0  0  0
  3 10  2  0  0  0  0
  4 11  1  0  0  0  0
  5  9  1  0  0  0  0
  6 13  2  0  0  0  0
  6 14  1  0  0  0  0
  7 27  2  0  0  0  0
  8  9  2  0  0  0  0
  8 27  1  0  0  0  0
  9 25  1  0  0  0  0
 10 12  1  0  0  0  0
 10 19  1  0  0  0  0
 11 12  2  0  0  0  0
 11 24  1  0  0  0  0
 12 30  1  0  0  0  0
 13 26  1  0  0  0  0
 13 29  1  0  0  0  0
 14 28  2  0  0  0  0
 14 31  1  0  0  0  0
 15 16  2  0  0  0  0
 16 17  1  0  0  0  0
 17 31  1  0  0  0  0
 17 32  2  0  0  0  0
 18 25  1  0  0  0  0
 18 30  1  0  0  0  0
 18 33  2  0  0  0  0
 20 24  1  0  0  0  0
 21 26  1  0  0  0  0
 22 26  1  0  0  0  0
 23 26  1  0  0  0  0
 25 31  1  0  0  0  0
 28 29  1  0  0  0  0
  1 34  1  0  0  0  0
  2 35  1  0  0  0  0
  3 36  1  0  0  0  0
  4 37  1  0  0  0  0
  5 38  1  0  0  0  0
  6 39  1  0  0  0  0
  7 40  1  0  0  0  0
  8 41  1  0  0  0  0
 15 42  1  0  0  0  0
 15 43  1  0  0  0  0
 16 44  1  0  0  0  0
 19 45  1  0  0  0  0
 19 46  1  0  0  0  0
 19 47  1  0  0  0  0
 20 48  1  0  0  0  0
 20 49  1  0  0  0  0
 20 50  1  0  0  0  0
 21 51  1  0  0  0  0
 21 52  1  0  0  0  0
 21 53  1  0  0  0  0
 22 54  1  0  0  0  0
 22 55  1  0  0  0  0
 22 56  1  0  0  0  0
 23 57  1  0  0  0  0
 23 58  1  0  0  0  0
 23 59  1  0  0  0  0
 24 60  1  0  0  0  0
 24 61  1  0  0  0  0
 25 62  1  0  0  0  0
 29 63  1  0  0  0  0
 30 64  1  0  0  0  0
M  END
> <series>
3-aminopyridine-like

> <r_inhibition_at_20_uM>
0.0

> <r_inhibition_at_50_uM>

> <r_IC50>

> <f_inhibition_at_20_uM>
4.0468147000000005

> <f_inhibition_at_50_uM>
4.7055155

> <f_avg_IC50>

> <f_avg_pIC50>

> <ASSAYED>
True

> <Hybrid2>
-9.250729

> <docked_fragment>
x0678

> <Mpro-_dock>
-7.280655

> <site>
active-noncovalent

$$$$
JAN-GHE-5a013bed-3
  -OEChem-07042000473D

 34 36  0     0  0  0  0  0  0999 V2000
    4.4700    1.3195   19.8564 C   0  0  0  0  0  0  0  0  0  0  0  0
    4.6009    0.9727   18.5126 C   0  0  0  0  0  0  0  0  0  0  0  0
   13.9980   -1.7724   21.6651 C   0  0  0  0  0  0  0  0  0  0  0  0
    5.5688    1.2360   20.7103 C   0  0  0  0  0  0  0  0  0  0  0  0
   13.2261   -0.6152   21.5624 C   0  0  0  0  0  0  0  0  0  0  0  0
    5.8325    0.5410   18.0164 C   0  0  0  0  0  0  0  0  0  0  0  0
   14.2863   -2.3095   22.9197 C   0  0  0  0  0  0  0  0  0  0  0  0
   13.0308   -0.5320   23.9691 C   0  0  0  0  0  0  0  0  0  0  0  0
    6.8007    0.8031   20.2099 C   0  0  0  0  0  0  0  0  0  0  0  0
   12.7425    0.0050   22.7144 C   0  0  0  0  0  0  0  0  0  0  0  0
    6.9467    0.4509   18.8579 C   0  0  0  0  0  0  0  0  0  0  0  0
   13.8027   -1.6893   24.0717 C   0  0  0  0  0  0  0  0  0  0  0  0
    9.1797   -0.0599   19.1235 C   0  0  0  0  0  0  0  0  0  0  0  0
    7.9801    0.7080   21.1043 C   0  0  0  0  0  0  0  0  0  0  0  0
   11.1428    1.2238   21.2963 C   0  0  0  0  0  0  0  0  0  0  0  0
   11.9116    1.2530   22.6030 C   0  0  0  0  0  0  0  0  0  0  0  0
    8.1713    0.0111   18.3183 N   0  0  0  0  0  0  0  0  0  0  0  0
    9.1310    0.2639   20.4610 N   0  0  0  0  0  0  0  0  0  0  0  0
   10.2821    0.1412   21.1984 N   0  0  0  0  0  0  0  0  0  0  0  0
    7.8926    1.0056   22.2905 O   0  0  0  0  0  0  0  0  0  0  0  0
   11.2873    2.0947   20.4394 O   0  0  0  0  0  0  0  0  0  0  0  0
   14.1596   -2.3518   25.6195 Cl  0  0  0  0  0  0  0  0  0  0  0  0
    3.5102    1.6550   20.2386 H   0  0  0  0  0  0  0  0  0  0  0  0
    3.7430    1.0386   17.8496 H   0  0  0  0  0  0  0  0  0  0  0  0
   14.3745   -2.2550   20.7678 H   0  0  0  0  0  0  0  0  0  0  0  0
    5.4472    1.5103   21.7543 H   0  0  0  0  0  0  0  0  0  0  0  0
   13.0066   -0.2036   20.5807 H   0  0  0  0  0  0  0  0  0  0  0  0
    5.9170    0.2747   16.9655 H   0  0  0  0  0  0  0  0  0  0  0  0
   14.8893   -3.2119   22.9846 H   0  0  0  0  0  0  0  0  0  0  0  0
   12.6509   -0.0450   24.8643 H   0  0  0  0  0  0  0  0  0  0  0  0
   10.1661   -0.3959   18.7662 H   0  0  0  0  0  0  0  0  0  0  0  0
   11.1843    1.3251   23.4204 H   0  0  0  0  0  0  0  0  0  0  0  0
   12.5469    2.1438   22.6717 H   0  0  0  0  0  0  0  0  0  0  0  0
   10.5016   -0.7354   21.6684 H   0  0  0  0  0  0  0  0  0  0  0  0
  1  2  1  0  0  0  0
  1  4  2  0  0  0  0
  2  6  2  0  0  0  0
  3  5  2  0  0  0  0
  3  7  1  0  0  0  0
  4  9  1  0  0  0  0
  5 10  1  0  0  0  0
  6 11  1  0  0  0  0
  7 12  2  0  0  0  0
  8 10  2  0  0  0  0
  8 12  1  0  0  0  0
  9 11  2  0  0  0  0
  9 14  1  0  0  0  0
 10 16  1  0  0  0  0
 11 17  1  0  0  0  0
 12 22  1  0  0  0  0
 13 17  2  0  0  0  0
 13 18  1  0  0  0  0
 14 18  1  0  0  0  0
 14 20  2  0  0  0  0
 15 16  1  0  0  0  0
 15 19  1  0  0  0  0
 15 21  2  0  0  0  0
 18 19  1  0  0  0  0
  1 23  1  0  0  0  0
  2 24  1  0  0  0  0
  3 25  1  0  0  0  0
  4 26  1  0  0  0  0
  5 27  1  0  0  0  0
  6 28  1  0  0  0  0
  7 29  1  0  0  0  0
  8 30  1  0  0  0  0
 13 31  1  0  0  0  0
 16 32  1  0  0  0  0
 16 33  1  0  0  0  0
 19 34  1  0  0  0  0
M  END
> <series>
3-aminopyridine-like

> <r_inhibition_at_20_uM>

> <r_inhibition_at_50_uM>
0.0

> <r_IC50>

> <f_inhibition_at_20_uM>
70.86070000000002

> <f_inhibition_at_50_uM>
87.0438

> <f_avg_IC50>
8.645464173907452

> <f_avg_pIC50>
5.063211684546804

> <ASSAYED>
True

> <Hybrid2>
-9.228185

> <docked_fragment>
x0678

> <Mpro-_dock>
-5.837351

> <site>
active-noncovalent

$$$$
MAT-POS-590ac91e-9
  -OEChem-07042000473D

 32 33  0     0  0  0  0  0  0999 V2000
    5.6662    0.6733   19.1683 C   0  0  0  0  0  0  0  0  0  0  0  0
    6.3494    0.5130   17.9736 C   0  0  0  0  0  0  0  0  0  0  0  0
    8.3347    0.1143   19.0591 C   0  0  0  0  0  0  0  0  0  0  0  0
    6.3843    0.5408   20.3516 C   0  0  0  0  0  0  0  0  0  0  0  0
    7.7445    0.2562   20.3046 C   0  0  0  0  0  0  0  0  0  0  0  0
    9.8711    0.3951   21.6464 C   0  0  0  0  0  0  0  0  0  0  0  0
   12.8647    0.5075   22.6678 C   0  0  0  0  0  0  0  0  0  0  0  0
   12.6972    0.2679   24.1427 C   0  0  0  0  0  0  0  0  0  0  0  0
   11.7464   -0.3680   23.1651 C   0  0  0  0  0  0  0  0  0  0  0  0
    5.6730    0.7092   21.6540 C   0  0  0  0  0  0  0  0  0  0  0  0
   12.0232   -2.0696   21.5679 C   0  0  0  0  0  0  0  0  0  0  0  0
   10.3342    0.1023   23.0772 C   0  0  0  0  0  0  0  0  0  0  0  0
    7.6699    0.2359   17.8882 N   0  0  0  0  0  0  0  0  0  0  0  0
    8.5184    0.1116   21.4806 N   0  0  0  0  0  0  0  0  0  0  0  0
   10.6515    0.8254   20.8035 O   0  0  0  0  0  0  0  0  0  0  0  0
   11.9084   -1.7796   22.9485 O   0  0  0  0  0  0  0  0  0  0  0  0
    4.6045    0.8952   19.1705 H   0  0  0  0  0  0  0  0  0  0  0  0
    5.8350    0.6065   17.0229 H   0  0  0  0  0  0  0  0  0  0  0  0
    9.3927   -0.1085   18.9571 H   0  0  0  0  0  0  0  0  0  0  0  0
   12.6219    1.4928   22.2886 H   0  0  0  0  0  0  0  0  0  0  0  0
   13.7048    0.0347   22.1735 H   0  0  0  0  0  0  0  0  0  0  0  0
   13.4254   -0.3649   24.6359 H   0  0  0  0  0  0  0  0  0  0  0  0
   12.3421    1.0931   24.7481 H   0  0  0  0  0  0  0  0  0  0  0  0
    5.2816   -0.2543   22.0003 H   0  0  0  0  0  0  0  0  0  0  0  0
    6.3442    1.1108   22.4231 H   0  0  0  0  0  0  0  0  0  0  0  0
    4.8368    1.4132   21.5607 H   0  0  0  0  0  0  0  0  0  0  0  0
   12.1451   -3.1467   21.4300 H   0  0  0  0  0  0  0  0  0  0  0  0
   12.8838   -1.5386   21.1535 H   0  0  0  0  0  0  0  0  0  0  0  0
   11.1144   -1.7399   21.0587 H   0  0  0  0  0  0  0  0  0  0  0  0
   10.1917    1.0283   23.6638 H   0  0  0  0  0  0  0  0  0  0  0  0
    9.6427   -0.6505   23.4980 H   0  0  0  0  0  0  0  0  0  0  0  0
    8.0150   -0.2413   22.2919 H   0  0  0  0  0  0  0  0  0  0  0  0
  1  2  2  0  0  0  0
  1  4  1  0  0  0  0
  2 13  1  0  0  0  0
  3  5  1  0  0  0  0
  3 13  2  0  0  0  0
  4  5  2  0  0  0  0
  4 10  1  0  0  0  0
  5 14  1  0  0  0  0
  6 12  1  0  0  0  0
  6 14  1  0  0  0  0
  6 15  2  0  0  0  0
  7  8  1  0  0  0  0
  7  9  1  0  0  0  0
  8  9  1  0  0  0  0
  9 12  1  0  0  0  0
  9 16  1  0  0  0  0
 11 16  1  0  0  0  0
  1 17  1  0  0  0  0
  2 18  1  0  0  0  0
  3 19  1  0  0  0  0
  7 20  1  0  0  0  0
  7 21  1  0  0  0  0
  8 22  1  0  0  0  0
  8 23  1  0  0  0  0
 10 24  1  0  0  0  0
 10 25  1  0  0  0  0
 10 26  1  0  0  0  0
 11 27  1  0  0  0  0
 11 28  1  0  0  0  0
 11 29  1  0  0  0  0
 12 30  1  0  0  0  0
 12 31  1  0  0  0  0
 14 32  1  0  0  0  0
M  END
> <series>
3-aminopyridine-like

> <r_inhibition_at_20_uM>

> <r_inhibition_at_50_uM>
0.0

> <r_IC50>

> <f_inhibition_at_20_uM>
-5.470909

> <f_inhibition_at_50_uM>
13.8431555

> <f_avg_IC50>

> <f_avg_pIC50>

> <ASSAYED>
True

> <Hybrid2>
-9.212891

> <docked_fragment>
x0678

> <Mpro-_dock>
-6.020109

> <site>
active-noncovalent

$$$$
JAN-GHE-5a013bed-1
  -OEChem-07042000473D

 31 32  0     0  0  0  0  0  0999 V2000
   13.3157   -2.3414   22.4981 C   0  0  0  0  0  0  0  0  0  0  0  0
   12.2480   -1.4619   22.3191 C   0  0  0  0  0  0  0  0  0  0  0  0
   14.2241   -2.1335   23.5360 C   0  0  0  0  0  0  0  0  0  0  0  0
   12.9971   -0.1665   24.2160 C   0  0  0  0  0  0  0  0  0  0  0  0
   12.0887   -0.3744   23.1780 C   0  0  0  0  0  0  0  0  0  0  0  0
   14.0648   -1.0461   24.3950 C   0  0  0  0  0  0  0  0  0  0  0  0
    6.8054    0.4798   18.7097 C   0  0  0  0  0  0  0  0  0  0  0  0
    7.0772    0.5501   20.0529 C   0  0  0  0  0  0  0  0  0  0  0  0
   10.4932    0.6992   21.5353 C   0  0  0  0  0  0  0  0  0  0  0  0
    5.5214    0.6295   18.0112 C   0  0  0  0  0  0  0  0  0  0  0  0
    6.2151    0.7903   21.2233 C   0  0  0  0  0  0  0  0  0  0  0  0
   10.9475    0.5663   22.9853 C   0  0  0  0  0  0  0  0  0  0  0  0
    7.9597    0.2335   18.0195 N   0  0  0  0  0  0  0  0  0  0  0  0
    8.9510    0.1466   18.8998 N   0  0  0  0  0  0  0  0  0  0  0  0
    8.4197    0.3365   20.1184 N   0  0  0  0  0  0  0  0  0  0  0  0
    9.1666    0.3244   21.3946 N   0  0  0  0  0  0  0  0  0  0  0  0
   11.2461    1.0960   20.6530 O   0  0  0  0  0  0  0  0  0  0  0  0
   15.1864   -0.7895   25.6747 Cl  0  0  0  0  0  0  0  0  0  0  0  0
   13.4395   -3.1880   21.8289 H   0  0  0  0  0  0  0  0  0  0  0  0
   11.5451   -1.6315   21.5076 H   0  0  0  0  0  0  0  0  0  0  0  0
   15.0517   -2.8270   23.6634 H   0  0  0  0  0  0  0  0  0  0  0  0
   12.8682    0.6825   24.8833 H   0  0  0  0  0  0  0  0  0  0  0  0
    5.3331    1.6819   17.7329 H   0  0  0  0  0  0  0  0  0  0  0  0
    5.4751    0.0300   17.0830 H   0  0  0  0  0  0  0  0  0  0  0  0
    4.6661    0.2935   18.6269 H   0  0  0  0  0  0  0  0  0  0  0  0
    5.8163   -0.1557   21.6272 H   0  0  0  0  0  0  0  0  0  0  0  0
    6.7551    1.2999   22.0408 H   0  0  0  0  0  0  0  0  0  0  0  0
    5.3539    1.4378   20.9801 H   0  0  0  0  0  0  0  0  0  0  0  0
   11.2117    1.5726   23.3503 H   0  0  0  0  0  0  0  0  0  0  0  0
   10.0829    0.2443   23.5893 H   0  0  0  0  0  0  0  0  0  0  0  0
    8.6716    0.0193   22.2280 H   0  0  0  0  0  0  0  0  0  0  0  0
  1  2  2  0  0  0  0
  1  3  1  0  0  0  0
  2  5  1  0  0  0  0
  3  6  2  0  0  0  0
  4  5  2  0  0  0  0
  4  6  1  0  0  0  0
  5 12  1  0  0  0  0
  6 18  1  0  0  0  0
  7  8  2  0  0  0  0
  7 10  1  0  0  0  0
  7 13  1  0  0  0  0
  8 11  1  0  0  0  0
  8 15  1  0  0  0  0
  9 12  1  0  0  0  0
  9 16  1  0  0  0  0
  9 17  2  0  0  0  0
 13 14  2  0  0  0  0
 14 15  1  0  0  0  0
 15 16  1  0  0  0  0
  1 19  1  0  0  0  0
  2 20  1  0  0  0  0
  3 21  1  0  0  0  0
  4 22  1  0  0  0  0
 10 23  1  0  0  0  0
 10 24  1  0  0  0  0
 10 25  1  0  0  0  0
 11 26  1  0  0  0  0
 11 27  1  0  0  0  0
 11 28  1  0  0  0  0
 12 29  1  0  0  0  0
 12 30  1  0  0  0  0
 16 31  1  0  0  0  0
M  END
> <series>
3-aminopyridine-like

> <r_inhibition_at_20_uM>

> <r_inhibition_at_50_uM>
28.659433152450706

> <r_IC50>

> <f_inhibition_at_20_uM>
39.57277000000001

> <f_inhibition_at_50_uM>
70.40507500000002

> <f_avg_IC50>
14.162565202838712

> <f_avg_pIC50>
4.848858077681565

> <ASSAYED>
True

> <Hybrid2>
-9.192246

> <docked_fragment>
x0678

> <Mpro-_dock>
-6.481982

> <site>
active-noncovalent

$$$$
CHR-SOS-363cfb78-2
  -OEChem-07042000473D

 30 31  0     0  0  0  0  0  0999 V2000
    4.6344    1.7671   19.3035 C   0  0  0  0  0  0  0  0  0  0  0  0
   13.8053   -1.0742   24.3190 C   0  0  0  0  0  0  0  0  0  0  0  0
    6.8129    1.0566   20.1772 C   0  0  0  0  0  0  0  0  0  0  0  0
   14.6372   -1.4963   23.2945 C   0  0  0  0  0  0  0  0  0  0  0  0
    6.4120    0.9443   17.8356 C   0  0  0  0  0  0  0  0  0  0  0  0
    8.4558    0.2763   18.6449 C   0  0  0  0  0  0  0  0  0  0  0  0
   13.0350   -1.0797   21.7015 C   0  0  0  0  0  0  0  0  0  0  0  0
    5.9513    1.2566   19.1044 C   0  0  0  0  0  0  0  0  0  0  0  0
   12.5284   -0.6386   23.9830 C   0  0  0  0  0  0  0  0  0  0  0  0
    8.0909    0.5575   19.9516 C   0  0  0  0  0  0  0  0  0  0  0  0
   12.1280   -0.6383   22.6514 C   0  0  0  0  0  0  0  0  0  0  0  0
   10.3036   -0.1503   20.9625 C   0  0  0  0  0  0  0  0  0  0  0  0
   11.6104   -0.1786   25.0677 C   0  0  0  0  0  0  0  0  0  0  0  0
    3.5629    2.1825   19.4655 N   0  0  0  0  0  0  0  0  0  0  0  0
   14.2836   -1.5103   21.9897 N   0  0  0  0  0  0  0  0  0  0  0  0
    7.6465    0.4576   17.5772 N   0  0  0  0  0  0  0  0  0  0  0  0
    8.9765    0.3467   21.0058 N   0  0  0  0  0  0  0  0  0  0  0  0
   10.8397   -0.2044   22.2591 N   0  0  0  0  0  0  0  0  0  0  0  0
   10.8906   -0.4823   19.9376 O   0  0  0  0  0  0  0  0  0  0  0  0
   14.1482   -1.0871   25.3480 H   0  0  0  0  0  0  0  0  0  0  0  0
    6.4920    1.2887   21.1907 H   0  0  0  0  0  0  0  0  0  0  0  0
   15.6428   -1.8457   23.5039 H   0  0  0  0  0  0  0  0  0  0  0  0
    5.7883    1.0776   16.9562 H   0  0  0  0  0  0  0  0  0  0  0  0
    9.4398   -0.1160   18.4056 H   0  0  0  0  0  0  0  0  0  0  0  0
   12.7814   -1.1027   20.6458 H   0  0  0  0  0  0  0  0  0  0  0  0
   11.7321    0.8974   25.2373 H   0  0  0  0  0  0  0  0  0  0  0  0
   10.5625   -0.3757   24.8101 H   0  0  0  0  0  0  0  0  0  0  0  0
   11.8127   -0.7061   26.0081 H   0  0  0  0  0  0  0  0  0  0  0  0
    8.6206    0.5829   21.9392 H   0  0  0  0  0  0  0  0  0  0  0  0
   10.2321    0.1044   23.0138 H   0  0  0  0  0  0  0  0  0  0  0  0
  1  8  1  0  0  0  0
  1 14  3  0  0  0  0
  2  4  2  0  0  0  0
  2  9  1  0  0  0  0
  3  8  1  0  0  0  0
  3 10  2  0  0  0  0
  4 15  1  0  0  0  0
  5  8  2  0  0  0  0
  5 16  1  0  0  0  0
  6 10  1  0  0  0  0
  6 16  2  0  0  0  0
  7 11  1  0  0  0  0
  7 15  2  0  0  0  0
  9 11  2  0  0  0  0
  9 13  1  0  0  0  0
 10 17  1  0  0  0  0
 11 18  1  0  0  0  0
 12 17  1  0  0  0  0
 12 18  1  0  0  0  0
 12 19  2  0  0  0  0
  2 20  1  0  0  0  0
  3 21  1  0  0  0  0
  4 22  1  0  0  0  0
  5 23  1  0  0  0  0
  6 24  1  0  0  0  0
  7 25  1  0  0  0  0
 13 26  1  0  0  0  0
 13 27  1  0  0  0  0
 13 28  1  0  0  0  0
 17 29  1  0  0  0  0
 18 30  1  0  0  0  0
M  END
> <series>
3-aminopyridine-like

> <r_inhibition_at_20_uM>

> <r_inhibition_at_50_uM>
15.54

> <r_IC50>

> <f_inhibition_at_20_uM>
3.673195

> <f_inhibition_at_50_uM>
3.96325

> <f_avg_IC50>

> <f_avg_pIC50>

> <ASSAYED>
True

> <Hybrid2>
-9.172102

> <docked_fragment>
x0678

> <Mpro-_dock>
-5.612185

> <site>
active-noncovalent

$$$$
LON-WEI-d1c9908a-6
  -OEChem-07042000473D

 62 65  0     1  0  0  0  0  0999 V2000
    6.1906   -6.0979   23.3079 C   0  0  0  0  0  0  0  0  0  0  0  0
    6.0082    0.6046   19.4086 C   0  0  0  0  0  0  0  0  0  0  0  0
   12.4838   -2.1837   23.2822 C   0  0  0  0  0  0  0  0  0  0  0  0
   13.4874   -0.1080   22.5602 C   0  0  0  0  0  0  0  0  0  0  0  0
    5.6473   -5.6487   24.5115 C   0  0  0  0  0  0  0  0  0  0  0  0
    6.7975    0.0606   20.4158 C   0  0  0  0  0  0  0  0  0  0  0  0
    6.9146   -5.2216   22.4994 C   0  0  0  0  0  0  0  0  0  0  0  0
   11.2445   -1.7475   22.8139 C   0  0  0  0  0  0  0  0  0  0  0  0
   12.2480    0.3283   22.0919 C   0  0  0  0  0  0  0  0  0  0  0  0
    6.5518   -3.4469   24.0981 C   0  0  0  0  0  0  0  0  0  0  0  0
    6.5123    0.6042   18.1180 C   0  0  0  0  0  0  0  0  0  0  0  0
    8.4618   -0.4127   18.7841 C   0  0  0  0  0  0  0  0  0  0  0  0
   13.6053   -1.3640   23.1554 C   0  0  0  0  0  0  0  0  0  0  0  0
    5.8279   -4.3232   24.9066 C   0  0  0  0  0  0  0  0  0  0  0  0
    8.0491   -0.4598   20.1059 C   0  0  0  0  0  0  0  0  0  0  0  0
   11.1266   -0.4915   22.2187 C   0  0  0  0  0  0  0  0  0  0  0  0
    7.0952   -3.8961   22.8945 C   0  0  0  0  0  0  0  0  0  0  0  0
   10.3495    3.4453   22.6250 C   0  0  0  0  0  0  0  0  0  0  0  0
   10.0727    2.1518   22.8178 C   0  0  0  0  0  0  0  0  0  0  0  0
    9.4996    1.3313   21.7108 C   0  0  0  0  0  0  0  0  0  0  0  0
    8.1057   -1.6633   22.3119 C   0  0  0  0  0  0  0  0  0  0  0  0
   15.0554   -2.1578   25.1326 C   0  0  0  0  0  0  0  0  0  0  0  0
   15.6951   -0.9160   24.5954 C   0  0  0  0  0  0  0  0  0  0  0  0
   14.9293   -1.8299   23.6558 C   0  0  0  0  0  0  0  0  0  0  0  0
   15.7211   -2.6589   22.6829 C   0  0  0  0  0  0  0  0  0  0  0  0
    6.2085   -4.0187   27.3660 C   0  0  0  0  0  0  0  0  0  0  0  0
    5.2468   -3.8435   26.1934 C   0  0  0  0  0  0  0  0  0  0  0  0
    8.9313   -1.0591   21.1788 C   0  0  2  0  0  0  0  0  0  0  0  0
    7.7231    0.1078   17.7786 N   0  0  0  0  0  0  0  0  0  0  0  0
    7.8303   -3.0076   22.0743 N   0  0  0  0  0  0  0  0  0  0  0  0
    9.8359   -0.0370   21.7311 N   0  0  0  0  0  0  0  0  0  0  0  0
    8.7970    1.8840   20.8640 O   0  0  0  0  0  0  0  0  0  0  0  0
    7.7499   -0.9940   23.2782 O   0  0  0  0  0  0  0  0  0  0  0  0
    6.0503   -7.1301   23.0004 H   0  0  0  0  0  0  0  0  0  0  0  0
    5.0292    1.0157   19.6269 H   0  0  0  0  0  0  0  0  0  0  0  0
   12.5654   -3.1640   23.7444 H   0  0  0  0  0  0  0  0  0  0  0  0
   14.3556    0.5377   22.4570 H   0  0  0  0  0  0  0  0  0  0  0  0
    5.0843   -6.3386   25.1341 H   0  0  0  0  0  0  0  0  0  0  0  0
    6.4295    0.0463   21.4381 H   0  0  0  0  0  0  0  0  0  0  0  0
    7.3334   -5.5826   21.5634 H   0  0  0  0  0  0  0  0  0  0  0  0
   10.3773   -2.3947   22.9181 H   0  0  0  0  0  0  0  0  0  0  0  0
   12.1682    1.3091   21.6299 H   0  0  0  0  0  0  0  0  0  0  0  0
    6.6907   -2.4134   24.4079 H   0  0  0  0  0  0  0  0  0  0  0  0
    5.9355    1.0174   17.2970 H   0  0  0  0  0  0  0  0  0  0  0  0
    9.4285   -0.8036   18.4822 H   0  0  0  0  0  0  0  0  0  0  0  0
   10.7877    4.0317   23.4258 H   0  0  0  0  0  0  0  0  0  0  0  0
   10.1473    3.9515   21.6875 H   0  0  0  0  0  0  0  0  0  0  0  0
   10.3056    1.6802   23.7655 H   0  0  0  0  0  0  0  0  0  0  0  0
   15.7067   -2.9721   25.4286 H   0  0  0  0  0  0  0  0  0  0  0  0
   14.1857   -2.0407   25.7690 H   0  0  0  0  0  0  0  0  0  0  0  0
   15.2551    0.0353   24.8723 H   0  0  0  0  0  0  0  0  0  0  0  0
   16.7767   -0.8943   24.5288 H   0  0  0  0  0  0  0  0  0  0  0  0
   16.6806   -2.9653   23.1177 H   0  0  0  0  0  0  0  0  0  0  0  0
   15.9311   -2.0947   21.7659 H   0  0  0  0  0  0  0  0  0  0  0  0
   15.1723   -3.5666   22.4027 H   0  0  0  0  0  0  0  0  0  0  0  0
    6.5105   -5.0660   27.4732 H   0  0  0  0  0  0  0  0  0  0  0  0
    5.7386   -3.7037   28.3030 H   0  0  0  0  0  0  0  0  0  0  0  0
    7.1148   -3.4206   27.2233 H   0  0  0  0  0  0  0  0  0  0  0  0
    4.9646   -2.7812   26.1153 H   0  0  0  0  0  0  0  0  0  0  0  0
    4.3088   -4.3781   26.4144 H   0  0  0  0  0  0  0  0  0  0  0  0
    9.5628   -1.8473   20.7509 H   0  0  0  0  0  0  0  0  0  0  0  0
    8.2010   -3.3964   21.2098 H   0  0  0  0  0  0  0  0  0  0  0  0
  1  5  1  0  0  0  0
  1  7  2  0  0  0  0
  2  6  2  0  0  0  0
  2 11  1  0  0  0  0
  3  8  2  0  0  0  0
  3 13  1  0  0  0  0
  4  9  1  0  0  0  0
  4 13  2  0  0  0  0
  5 14  2  0  0  0  0
  6 15  1  0  0  0  0
  7 17  1  0  0  0  0
  8 16  1  0  0  0  0
  9 16  2  0  0  0  0
 10 14  1  0  0  0  0
 10 17  2  0  0  0  0
 11 29  2  0  0  0  0
 12 15  2  0  0  0  0
 12 29  1  0  0  0  0
 13 24  1  0  0  0  0
 14 27  1  0  0  0  0
 15 28  1  0  0  0  0
 16 31  1  0  0  0  0
 17 30  1  0  0  0  0
 18 19  2  0  0  0  0
 19 20  1  0  0  0  0
 20 31  1  0  0  0  0
 20 32  2  0  0  0  0
 21 28  1  0  0  0  0
 21 30  1  0  0  0  0
 21 33  2  0  0  0  0
 22 23  1  0  0  0  0
 22 24  1  0  0  0  0
 23 24  1  0  0  0  0
 24 25  1  0  0  0  0
 26 27  1  0  0  0  0
 28 31  1  0  0  0  0
  1 34  1  0  0  0  0
  2 35  1  0  0  0  0
  3 36  1  0  0  0  0
  4 37  1  0  0  0  0
  5 38  1  0  0  0  0
  6 39  1  0  0  0  0
  7 40  1  0  0  0  0
  8 41  1  0  0  0  0
  9 42  1  0  0  0  0
 10 43  1  0  0  0  0
 11 44  1  0  0  0  0
 12 45  1  0  0  0  0
 18 46  1  0  0  0  0
 18 47  1  0  0  0  0
 19 48  1  0  0  0  0
 22 49  1  0  0  0  0
 22 50  1  0  0  0  0
 23 51  1  0  0  0  0
 23 52  1  0  0  0  0
 25 53  1  0  0  0  0
 25 54  1  0  0  0  0
 25 55  1  0  0  0  0
 26 56  1  0  0  0  0
 26 57  1  0  0  0  0
 26 58  1  0  0  0  0
 27 59  1  0  0  0  0
 27 60  1  0  0  0  0
 28 61  1  0  0  0  0
 30 62  1  0  0  0  0
M  END
> <series>
3-aminopyridine-like

> <r_inhibition_at_20_uM>
4.5299999999999985

> <r_inhibition_at_50_uM>
47.21

> <r_IC50>

> <f_inhibition_at_20_uM>

> <f_inhibition_at_50_uM>
21.022389999999998

> <f_avg_IC50>
99.03000000000002

> <f_avg_pIC50>

> <ASSAYED>
True

> <Hybrid2>
-9.139188

> <docked_fragment>
x0678

> <Mpro-_dock>
-5.510109

> <site>
active-noncovalent

$$$$
JAN-GHE-5a013bed-11
  -OEChem-07042000473D

 23 24  0     0  0  0  0  0  0999 V2000
   12.3479    1.4005   22.4901 C   0  0  0  0  0  0  0  0  0  0  0  0
   11.3697    0.7121   21.7726 C   0  0  0  0  0  0  0  0  0  0  0  0
   13.3252    0.6941   23.1913 C   0  0  0  0  0  0  0  0  0  0  0  0
   12.3459   -1.3890   22.4577 C   0  0  0  0  0  0  0  0  0  0  0  0
   11.3686   -0.6826   21.7564 C   0  0  0  0  0  0  0  0  0  0  0  0
   13.3241   -0.7006   23.1752 C   0  0  0  0  0  0  0  0  0  0  0  0
    7.5028    0.2335   19.0763 C   0  0  0  0  0  0  0  0  0  0  0  0
    8.9898   -0.6781   20.8936 C   0  0  0  0  0  0  0  0  0  0  0  0
   10.3216   -1.4180   20.9900 C   0  0  0  0  0  0  0  0  0  0  0  0
    6.5413    0.7274   19.8794 N   0  5  0  0  0  0  0  0  0  0  0  0
    7.2665    0.4283   17.7650 N   0  0  0  0  0  0  0  0  0  0  0  0
    5.6448    1.2664   19.0156 N   0  0  0  0  0  0  0  0  0  0  0  0
    6.0803    1.0867   17.7453 N   0  0  0  0  0  0  0  0  0  0  0  0
    8.6543   -0.4281   19.5654 N   0  0  0  0  0  0  0  0  0  0  0  0
    8.3476   -0.3705   21.8926 O   0  0  0  0  0  0  0  0  0  0  0  0
   14.5294   -1.5716   24.0415 Cl  0  0  0  0  0  0  0  0  0  0  0  0
   12.3484    2.4866   22.5025 H   0  0  0  0  0  0  0  0  0  0  0  0
   10.6121    1.2707   21.2291 H   0  0  0  0  0  0  0  0  0  0  0  0
   14.0813    1.2439   23.7464 H   0  0  0  0  0  0  0  0  0  0  0  0
   12.3410   -2.4765   22.4415 H   0  0  0  0  0  0  0  0  0  0  0  0
   10.6714   -1.6247   19.9650 H   0  0  0  0  0  0  0  0  0  0  0  0
   10.1334   -2.4026   21.4489 H   0  0  0  0  0  0  0  0  0  0  0  0
    9.3140   -0.7598   18.8647 H   0  0  0  0  0  0  0  0  0  0  0  0
  1  2  2  0  0  0  0
  1  3  1  0  0  0  0
  2  5  1  0  0  0  0
  3  6  2  0  0  0  0
  4  5  2  0  0  0  0
  4  6  1  0  0  0  0
  5  9  1  0  0  0  0
  6 16  1  0  0  0  0
  7 10  1  0  0  0  0
  7 11  2  0  0  0  0
  7 14  1  0  0  0  0
  8  9  1  0  0  0  0
  8 14  1  0  0  0  0
  8 15  2  0  0  0  0
 10 12  1  0  0  0  0
 11 13  1  0  0  0  0
 12 13  2  0  0  0  0
  1 17  1  0  0  0  0
  2 18  1  0  0  0  0
  3 19  1  0  0  0  0
  4 20  1  0  0  0  0
  9 21  1  0  0  0  0
  9 22  1  0  0  0  0
 14 23  1  0  0  0  0
M  CHG  1  10  -1
M  END
> <series>
3-aminopyridine-like

> <r_inhibition_at_20_uM>

> <r_inhibition_at_50_uM>
27.162015770165617

> <r_IC50>

> <f_inhibition_at_20_uM>
23.335045

> <f_inhibition_at_50_uM>
49.133815000000006

> <f_avg_IC50>
45.28670943122256

> <f_avg_pIC50>
4.344029234357449

> <ASSAYED>
True

> <Hybrid2>
-9.135826

> <docked_fragment>
x0678

> <Mpro-_dock>
-5.741053

> <site>
active-noncovalent

$$$$
RAL-MED-2de63afb-3
  -OEChem-07042000473D

 38 40  0     1  0  0  0  0  0999 V2000
    9.6164   -3.0141   23.0385 C   0  0  0  0  0  0  0  0  0  0  0  0
   10.9050   -2.4826   22.9863 C   0  0  0  0  0  0  0  0  0  0  0  0
    8.5435   -2.2947   22.5121 C   0  0  0  0  0  0  0  0  0  0  0  0
   10.0477   -0.5124   21.8817 C   0  0  0  0  0  0  0  0  0  0  0  0
    4.8242    0.5704   18.7407 C   0  0  0  0  0  0  0  0  0  0  0  0
    7.1365    0.7067   18.4390 C   0  0  0  0  0  0  0  0  0  0  0  0
    5.7845   -0.0523   16.7767 C   0  0  0  0  0  0  0  0  0  0  0  0
   11.1206   -1.2318   22.4080 C   0  0  0  0  0  0  0  0  0  0  0  0
    6.0542    0.8990   19.2731 C   0  0  0  0  0  0  0  0  0  0  0  0
    8.7591   -1.0439   21.9337 C   0  0  0  0  0  0  0  0  0  0  0  0
   14.2481   -2.2862   22.7371 C   0  0  0  0  0  0  0  0  0  0  0  0
    7.5327    1.0689   21.3197 C   0  0  0  0  0  0  0  0  0  0  0  0
   13.5618   -1.5270   21.6258 C   0  0  0  0  0  0  0  0  0  0  0  0
   13.1214   -0.4783   23.7465 C   0  0  0  0  0  0  0  0  0  0  0  0
   12.5249   -0.6531   22.3514 C   0  0  2  0  0  0  0  0  0  0  0  0
    6.2057    1.4340   20.6730 C   0  0  0  0  0  0  0  0  0  0  0  0
    4.6522    0.0905   17.4915 N   0  0  0  0  0  0  0  0  0  0  0  0
    7.0377    0.2308   17.1803 N   0  0  0  0  0  0  0  0  0  0  0  0
   13.9426   -1.6440   23.9296 N   0  0  0  0  0  0  0  0  0  0  0  0
    7.6858   -0.3249   21.4068 N   0  0  0  0  0  0  0  0  0  0  0  0
   14.9644   -3.2638   22.5860 O   0  0  0  0  0  0  0  0  0  0  0  0
    8.3317    1.9181   21.7011 O   0  0  0  0  0  0  0  0  0  0  0  0
    9.4485   -3.9882   23.4884 H   0  0  0  0  0  0  0  0  0  0  0  0
   11.7342   -3.0501   23.3996 H   0  0  0  0  0  0  0  0  0  0  0  0
    7.5435   -2.7186   22.5583 H   0  0  0  0  0  0  0  0  0  0  0  0
   10.2183    0.4633   21.4318 H   0  0  0  0  0  0  0  0  0  0  0  0
    3.9109    0.6856   19.3160 H   0  0  0  0  0  0  0  0  0  0  0  0
    8.1470    0.9345   18.7636 H   0  0  0  0  0  0  0  0  0  0  0  0
    5.6750   -0.4370   15.7702 H   0  0  0  0  0  0  0  0  0  0  0  0
   14.3161   -0.9036   21.1334 H   0  0  0  0  0  0  0  0  0  0  0  0
   13.1218   -2.2171   20.9001 H   0  0  0  0  0  0  0  0  0  0  0  0
   13.7843    0.3925   23.7879 H   0  0  0  0  0  0  0  0  0  0  0  0
   12.3848   -0.4143   24.5525 H   0  0  0  0  0  0  0  0  0  0  0  0
   12.4342    0.3483   21.8458 H   0  0  0  0  0  0  0  0  0  0  0  0
    6.1090    2.5271   20.6620 H   0  0  0  0  0  0  0  0  0  0  0  0
    5.3904    1.0537   21.3014 H   0  0  0  0  0  0  0  0  0  0  0  0
   14.2657   -1.9645   24.8370 H   0  0  0  0  0  0  0  0  0  0  0  0
    6.9097   -0.8853   21.0357 H   0  0  0  0  0  0  0  0  0  0  0  0
  1  2  2  0  0  0  0
  1  3  1  0  0  0  0
  2  8  1  0  0  0  0
  3 10  2  0  0  0  0
  4  8  2  0  0  0  0
  4 10  1  0  0  0  0
  5  9  1  0  0  0  0
  5 17  2  0  0  0  0
  6  9  2  0  0  0  0
  6 18  1  0  0  0  0
  7 17  1  0  0  0  0
  7 18  2  0  0  0  0
  8 15  1  0  0  0  0
  9 16  1  0  0  0  0
 10 20  1  0  0  0  0
 11 13  1  0  0  0  0
 11 19  1  0  0  0  0
 11 21  2  0  0  0  0
 12 16  1  0  0  0  0
 12 20  1  0  0  0  0
 12 22  2  0  0  0  0
 13 15  1  0  0  0  0
 14 15  1  0  0  0  0
 14 19  1  0  0  0  0
  1 23  1  0  0  0  0
  2 24  1  0  0  0  0
  3 25  1  0  0  0  0
  4 26  1  0  0  0  0
  5 27  1  0  0  0  0
  6 28  1  0  0  0  0
  7 29  1  0  0  0  0
 13 30  1  0  0  0  0
 13 31  1  0  0  0  0
 14 32  1  0  0  0  0
 14 33  1  0  0  0  0
 15 34  1  0  0  0  0
 16 35  1  0  0  0  0
 16 36  1  0  0  0  0
 19 37  1  0  0  0  0
 20 38  1  0  0  0  0
M  END
> <series>
3-aminopyridine-like

> <r_inhibition_at_20_uM>

> <r_inhibition_at_50_uM>
0.0

> <r_IC50>

> <f_inhibition_at_20_uM>
3.83430965

> <f_inhibition_at_50_uM>
10.797005

> <f_avg_IC50>

> <f_avg_pIC50>

> <ASSAYED>
True

> <Hybrid2>
-9.135734

> <docked_fragment>
x0678

> <Mpro-_dock>
-7.496739

> <site>
active-noncovalent

$$$$
MAK-UNK-129dcd6f-9
  -OEChem-07042000473D

 43 45  0     0  0  0  0  0  0999 V2000
   12.0154    0.5622   24.2218 C   0  0  0  0  0  0  0  0  0  0  0  0
    5.7026   -6.0360   25.7405 C   0  0  0  0  0  0  0  0  0  0  0  0
   11.5296    0.7911   22.9345 C   0  0  0  0  0  0  0  0  0  0  0  0
   11.2899   -0.2316   25.1102 C   0  0  0  0  0  0  0  0  0  0  0  0
    6.5849   -4.9771   25.5570 C   0  0  0  0  0  0  0  0  0  0  0  0
    5.6107    1.1754   18.7529 C   0  0  0  0  0  0  0  0  0  0  0  0
    9.5927   -0.5676   23.4239 C   0  0  0  0  0  0  0  0  0  0  0  0
    5.3319   -6.3540   27.0372 C   0  0  0  0  0  0  0  0  0  0  0  0
    6.2168    0.7852   17.5697 C   0  0  0  0  0  0  0  0  0  0  0  0
    6.6311   -4.6751   27.9156 C   0  0  0  0  0  0  0  0  0  0  0  0
    8.1497    0.1809   18.6547 C   0  0  0  0  0  0  0  0  0  0  0  0
   10.3182    0.2262   22.5355 C   0  0  0  0  0  0  0  0  0  0  0  0
    6.3397    1.0489   19.9302 C   0  0  0  0  0  0  0  0  0  0  0  0
   10.0786   -0.7965   24.7112 C   0  0  0  0  0  0  0  0  0  0  0  0
    7.0628   -4.2785   26.6601 C   0  0  0  0  0  0  0  0  0  0  0  0
    7.6342    0.5430   19.8888 C   0  0  0  0  0  0  0  0  0  0  0  0
    9.8129    0.4656   21.1932 C   0  0  0  0  0  0  0  0  0  0  0  0
    8.4891   -2.6755   25.3128 C   0  0  0  0  0  0  0  0  0  0  0  0
    5.7109    1.4626   21.2202 C   0  0  0  0  0  0  0  0  0  0  0  0
    5.7750   -5.6985   28.1333 N   0  0  0  0  0  0  0  0  0  0  0  0
    7.4720    0.2894   17.4899 N   0  0  0  0  0  0  0  0  0  0  0  0
    8.4174    0.3944   21.0611 N   0  0  0  0  0  0  0  0  0  0  0  0
    9.3532   -1.5908   25.5999 N   0  0  0  0  0  0  0  0  0  0  0  0
    7.9616   -3.1969   26.5051 N   0  0  0  0  0  0  0  0  0  0  0  0
   10.5739    0.6805   20.2394 O   0  0  0  0  0  0  0  0  0  0  0  0
    8.2425   -3.0927   24.1857 O   0  0  0  0  0  0  0  0  0  0  0  0
   12.9587    1.0017   24.5325 H   0  0  0  0  0  0  0  0  0  0  0  0
    5.3173   -6.5946   24.8952 H   0  0  0  0  0  0  0  0  0  0  0  0
   12.1030    1.4122   22.2514 H   0  0  0  0  0  0  0  0  0  0  0  0
   11.6778   -0.4029   26.1114 H   0  0  0  0  0  0  0  0  0  0  0  0
    6.8933   -4.7051   24.5510 H   0  0  0  0  0  0  0  0  0  0  0  0
    4.5990    1.5665   18.7510 H   0  0  0  0  0  0  0  0  0  0  0  0
    8.6472   -1.0075   23.1131 H   0  0  0  0  0  0  0  0  0  0  0  0
    4.6468   -7.1721   27.2336 H   0  0  0  0  0  0  0  0  0  0  0  0
    5.6908    0.8641   16.6239 H   0  0  0  0  0  0  0  0  0  0  0  0
    6.9689   -4.1684   28.8147 H   0  0  0  0  0  0  0  0  0  0  0  0
    9.1540   -0.2206   18.5576 H   0  0  0  0  0  0  0  0  0  0  0  0
    5.1827    0.6160   21.6740 H   0  0  0  0  0  0  0  0  0  0  0  0
    6.4645    1.8256   21.9299 H   0  0  0  0  0  0  0  0  0  0  0  0
    4.9955    2.2802   21.0681 H   0  0  0  0  0  0  0  0  0  0  0  0
    7.9007    0.2126   21.9181 H   0  0  0  0  0  0  0  0  0  0  0  0
    9.4599   -1.3582   26.5929 H   0  0  0  0  0  0  0  0  0  0  0  0
    8.2576   -2.7456   27.3670 H   0  0  0  0  0  0  0  0  0  0  0  0
  1  3  2  0  0  0  0
  1  4  1  0  0  0  0
  2  5  2  0  0  0  0
  2  8  1  0  0  0  0
  3 12  1  0  0  0  0
  4 14  2  0  0  0  0
  5 15  1  0  0  0  0
  6  9  2  0  0  0  0
  6 13  1  0  0  0  0
  7 12  2  0  0  0  0
  7 14  1  0  0  0  0
  8 20  2  0  0  0  0
  9 21  1  0  0  0  0
 10 15  2  0  0  0  0
 10 20  1  0  0  0  0
 11 16  1  0  0  0  0
 11 21  2  0  0  0  0
 12 17  1  0  0  0  0
 13 16  2  0  0  0  0
 13 19  1  0  0  0  0
 14 23  1  0  0  0  0
 15 24  1  0  0  0  0
 16 22  1  0  0  0  0
 17 22  1  0  0  0  0
 17 25  2  0  0  0  0
 18 23  1  0  0  0  0
 18 24  1  0  0  0  0
 18 26  2  0  0  0  0
  1 27  1  0  0  0  0
  2 28  1  0  0  0  0
  3 29  1  0  0  0  0
  4 30  1  0  0  0  0
  5 31  1  0  0  0  0
  6 32  1  0  0  0  0
  7 33  1  0  0  0  0
  8 34  1  0  0  0  0
  9 35  1  0  0  0  0
 10 36  1  0  0  0  0
 11 37  1  0  0  0  0
 19 38  1  0  0  0  0
 19 39  1  0  0  0  0
 19 40  1  0  0  0  0
 22 41  1  0  0  0  0
 23 42  1  0  0  0  0
 24 43  1  0  0  0  0
M  END
> <series>
3-aminopyridine-like

> <r_inhibition_at_20_uM>
2.3777708824086474

> <r_inhibition_at_50_uM>
1.2709463879521792

> <r_IC50>

> <f_inhibition_at_20_uM>

> <f_inhibition_at_50_uM>
-23.32078

> <f_avg_IC50>

> <f_avg_pIC50>

> <ASSAYED>
True

> <Hybrid2>
-9.129883

> <docked_fragment>
x0678

> <Mpro-_dock>
-5.466348

> <site>
active-noncovalent

$$$$
JAG-UCB-a3ef7265-14
  -OEChem-07042000473D

 31 32  0     0  0  0  0  0  0999 V2000
   12.6733    0.2457   23.3077 C   0  0  0  0  0  0  0  0  0  0  0  0
   13.5370   -0.8371   23.4297 C   0  0  0  0  0  0  0  0  0  0  0  0
   11.4240    0.0690   22.7236 C   0  0  0  0  0  0  0  0  0  0  0  0
    6.4207    0.7989   17.9457 C   0  0  0  0  0  0  0  0  0  0  0  0
    7.9701   -0.5996   18.3629 C   0  0  0  0  0  0  0  0  0  0  0  0
   13.1072   -2.0661   22.9555 C   0  0  0  0  0  0  0  0  0  0  0  0
    6.3057    0.5119   19.2854 C   0  0  0  0  0  0  0  0  0  0  0  0
   11.0889   -1.2004   22.2809 C   0  0  0  0  0  0  0  0  0  0  0  0
    8.8352   -0.4008   21.4912 C   0  0  0  0  0  0  0  0  0  0  0  0
   14.0080   -3.2504   23.0702 C   0  0  0  0  0  0  0  0  0  0  0  0
    5.3671    0.9946   20.3128 C   0  0  0  0  0  0  0  0  0  0  0  0
    7.6185   -1.0103   20.8198 C   0  0  0  0  0  0  0  0  0  0  0  0
    7.4584    0.1035   17.3771 N   0  0  0  0  0  0  0  0  0  0  0  0
   11.9011   -2.2764   22.3822 N   0  0  0  0  0  0  0  0  0  0  0  0
    7.3047   -0.3856   19.5379 N   0  0  0  0  0  0  0  0  0  0  0  0
    9.8280   -1.3683   21.6959 N   0  0  0  0  0  0  0  0  0  0  0  0
    8.8916    0.7871   21.7919 O   0  0  0  0  0  0  0  0  0  0  0  0
   12.9732    1.2255   23.6669 H   0  0  0  0  0  0  0  0  0  0  0  0
   14.5146   -0.7117   23.8826 H   0  0  0  0  0  0  0  0  0  0  0  0
   10.7443    0.9092   22.6243 H   0  0  0  0  0  0  0  0  0  0  0  0
    5.8101    1.4704   17.3593 H   0  0  0  0  0  0  0  0  0  0  0  0
    8.8126   -1.2734   18.2867 H   0  0  0  0  0  0  0  0  0  0  0  0
   13.8372   -3.7683   24.0215 H   0  0  0  0  0  0  0  0  0  0  0  0
   13.8373   -3.9604   22.2510 H   0  0  0  0  0  0  0  0  0  0  0  0
   15.0633   -2.9534   23.0193 H   0  0  0  0  0  0  0  0  0  0  0  0
    4.4723    0.3517   20.3714 H   0  0  0  0  0  0  0  0  0  0  0  0
    5.8253    1.0192   21.3176 H   0  0  0  0  0  0  0  0  0  0  0  0
    5.0236    2.0252   20.1124 H   0  0  0  0  0  0  0  0  0  0  0  0
    7.7882   -2.0787   20.6433 H   0  0  0  0  0  0  0  0  0  0  0  0
    6.7430   -0.9060   21.4709 H   0  0  0  0  0  0  0  0  0  0  0  0
    9.6024   -2.3154   21.3769 H   0  0  0  0  0  0  0  0  0  0  0  0
  1  2  2  0  0  0  0
  1  3  1  0  0  0  0
  2  6  1  0  0  0  0
  3  8  2  0  0  0  0
  4  7  2  0  0  0  0
  4 13  1  0  0  0  0
  5 13  2  0  0  0  0
  5 15  1  0  0  0  0
  6 10  1  0  0  0  0
  6 14  2  0  0  0  0
  7 11  1  0  0  0  0
  7 15  1  0  0  0  0
  8 14  1  0  0  0  0
  8 16  1  0  0  0  0
  9 12  1  0  0  0  0
  9 16  1  0  0  0  0
  9 17  2  0  0  0  0
 12 15  1  0  0  0  0
  1 18  1  0  0  0  0
  2 19  1  0  0  0  0
  3 20  1  0  0  0  0
  4 21  1  0  0  0  0
  5 22  1  0  0  0  0
 10 23  1  0  0  0  0
 10 24  1  0  0  0  0
 10 25  1  0  0  0  0
 11 26  1  0  0  0  0
 11 27  1  0  0  0  0
 11 28  1  0  0  0  0
 12 29  1  0  0  0  0
 12 30  1  0  0  0  0
 16 31  1  0  0  0  0
M  END
> <series>
3-aminopyridine-like

> <r_inhibition_at_20_uM>

> <r_inhibition_at_50_uM>
0.0

> <r_IC50>

> <f_inhibition_at_20_uM>
-1.2961575

> <f_inhibition_at_50_uM>
-3.38227345

> <f_avg_IC50>

> <f_avg_pIC50>

> <ASSAYED>
True

> <Hybrid2>
-9.112438

> <docked_fragment>
x0678

> <Mpro-_dock>
-7.116759

> <site>
active-noncovalent

$$$$
BAR-COM-4e090d3a-57
  -OEChem-07042000473D

 44 46  0     1  0  0  0  0  0999 V2000
   13.6483   -0.9911   21.9617 C   0  0  0  0  0  0  0  0  0  0  0  0
   14.0076   -1.1364   23.3016 C   0  0  0  0  0  0  0  0  0  0  0  0
    5.5609    1.2325   19.0705 C   0  0  0  0  0  0  0  0  0  0  0  0
    6.1676    0.5520   20.1202 C   0  0  0  0  0  0  0  0  0  0  0  0
   12.3074   -1.0740   21.5863 C   0  0  0  0  0  0  0  0  0  0  0  0
   13.0262   -1.3646   24.2661 C   0  0  0  0  0  0  0  0  0  0  0  0
    8.5858    2.3892   23.8712 C   0  0  0  0  0  0  0  0  0  0  0  0
   10.9460    2.9046   23.9021 C   0  0  0  0  0  0  0  0  0  0  0  0
    8.8208    1.2653   24.6632 C   0  0  0  0  0  0  0  0  0  0  0  0
   11.1810    1.7807   24.6941 C   0  0  0  0  0  0  0  0  0  0  0  0
    6.0248    0.9918   17.7873 C   0  0  0  0  0  0  0  0  0  0  0  0
    7.5953   -0.5067   18.5399 C   0  0  0  0  0  0  0  0  0  0  0  0
    7.2051   -0.3360   19.8584 C   0  0  0  0  0  0  0  0  0  0  0  0
   11.3260   -1.3023   22.5508 C   0  0  0  0  0  0  0  0  0  0  0  0
   11.6853   -1.4475   23.8907 C   0  0  0  0  0  0  0  0  0  0  0  0
    9.6484    3.2088   23.4906 C   0  0  0  0  0  0  0  0  0  0  0  0
   10.1184    0.9611   25.0747 C   0  0  0  0  0  0  0  0  0  0  0  0
    9.3677   -0.7411   21.0709 C   0  0  0  0  0  0  0  0  0  0  0  0
    7.8844   -1.0912   20.9772 C   0  0  1  0  0  0  0  0  0  0  0  0
    7.0300    0.1367   17.4939 N   0  0  0  0  0  0  0  0  0  0  0  0
    9.9884   -1.3815   22.1529 N   0  0  0  0  0  0  0  0  0  0  0  0
   10.6972   -1.6823   24.8987 N   0  0  0  0  0  0  0  0  0  0  0  0
    9.8931    0.0286   20.2717 O   0  0  0  0  0  0  0  0  0  0  0  0
    9.1755   -0.7568   26.7735 O   0  0  0  0  0  0  0  0  0  0  0  0
   11.6267   -0.2217   26.8437 O   0  0  0  0  0  0  0  0  0  0  0  0
    7.2417   -0.7692   22.2019 O   0  0  0  0  0  0  0  0  0  0  0  0
    9.4228    4.2876   22.7293 F   0  0  0  0  0  0  0  0  0  0  0  0
   10.4168   -0.4637   26.0815 S   0  0  0  0  0  0  0  0  0  0  0  0
   14.4121   -0.8139   21.2104 H   0  0  0  0  0  0  0  0  0  0  0  0
   15.0518   -1.0726   23.5939 H   0  0  0  0  0  0  0  0  0  0  0  0
    4.7503    1.9292   19.2509 H   0  0  0  0  0  0  0  0  0  0  0  0
    5.8258    0.7195   21.1380 H   0  0  0  0  0  0  0  0  0  0  0  0
   12.0402   -0.9600   20.5388 H   0  0  0  0  0  0  0  0  0  0  0  0
   13.3174   -1.4768   25.3075 H   0  0  0  0  0  0  0  0  0  0  0  0
    7.5757    2.6263   23.5504 H   0  0  0  0  0  0  0  0  0  0  0  0
   11.7729    3.5432   23.6054 H   0  0  0  0  0  0  0  0  0  0  0  0
    7.9857    0.6335   24.9538 H   0  0  0  0  0  0  0  0  0  0  0  0
   12.1961    1.5531   25.0085 H   0  0  0  0  0  0  0  0  0  0  0  0
    5.5849    1.4980   16.9343 H   0  0  0  0  0  0  0  0  0  0  0  0
    8.3991   -1.1864   18.2745 H   0  0  0  0  0  0  0  0  0  0  0  0
    7.7779   -2.1732   20.8326 H   0  0  0  0  0  0  0  0  0  0  0  0
    9.3844   -1.9852   22.7200 H   0  0  0  0  0  0  0  0  0  0  0  0
    9.8611   -2.1963   24.5810 H   0  0  0  0  0  0  0  0  0  0  0  0
    7.3314    0.1903   22.3229 H   0  0  0  0  0  0  0  0  0  0  0  0
  1  2  1  0  0  0  0
  1  5  2  0  0  0  0
  2  6  2  0  0  0  0
  3  4  2  0  0  0  0
  3 11  1  0  0  0  0
  4 13  1  0  0  0  0
  5 14  1  0  0  0  0
  6 15  1  0  0  0  0
  7  9  2  0  0  0  0
  7 16  1  0  0  0  0
  8 10  1  0  0  0  0
  8 16  2  0  0  0  0
  9 17  1  0  0  0  0
 10 17  2  0  0  0  0
 11 20  2  0  0  0  0
 12 13  2  0  0  0  0
 12 20  1  0  0  0  0
 13 19  1  0  0  0  0
 14 15  2  0  0  0  0
 14 21  1  0  0  0  0
 15 22  1  0  0  0  0
 16 27  1  0  0  0  0
 17 28  1  0  0  0  0
 18 19  1  0  0  0  0
 18 21  1  0  0  0  0
 18 23  2  0  0  0  0
 19 26  1  0  0  0  0
 22 28  1  0  0  0  0
 24 28  2  0  0  0  0
 25 28  2  0  0  0  0
  1 29  1  0  0  0  0
  2 30  1  0  0  0  0
  3 31  1  0  0  0  0
  4 32  1  0  0  0  0
  5 33  1  0  0  0  0
  6 34  1  0  0  0  0
  7 35  1  0  0  0  0
  8 36  1  0  0  0  0
  9 37  1  0  0  0  0
 10 38  1  0  0  0  0
 11 39  1  0  0  0  0
 12 40  1  0  0  0  0
 19 41  1  0  0  0  0
 21 42  1  0  0  0  0
 22 43  1  0  0  0  0
 26 44  1  0  0  0  0
M  END
> <series>
3-aminopyridine-like

> <r_inhibition_at_20_uM>
0.0

> <r_inhibition_at_50_uM>
0.0

> <r_IC50>

> <f_inhibition_at_20_uM>

> <f_inhibition_at_50_uM>
49.7127

> <f_avg_IC50>

> <f_avg_pIC50>

> <ASSAYED>
True

> <Hybrid2>
-9.098339

> <docked_fragment>
x0678

> <Mpro-_dock>
-6.446322

> <site>
active-noncovalent

$$$$
LON-WEI-b8d98729-15
  -OEChem-07042000473D

 60 62  0     1  0  0  0  0  0999 V2000
    6.7408   -6.1597   23.5152 C   0  0  0  0  0  0  0  0  0  0  0  0
    5.9573    0.5369   19.6807 C   0  0  0  0  0  0  0  0  0  0  0  0
    6.2316   -5.7501   24.7475 C   0  0  0  0  0  0  0  0  0  0  0  0
    6.8272    0.0376   20.6435 C   0  0  0  0  0  0  0  0  0  0  0  0
    7.3691   -5.2370   22.6787 C   0  0  0  0  0  0  0  0  0  0  0  0
    6.9788   -3.4952   24.3067 C   0  0  0  0  0  0  0  0  0  0  0  0
   11.7689   -1.4538   22.2745 C   0  0  0  0  0  0  0  0  0  0  0  0
    6.3958    0.5733   18.3668 C   0  0  0  0  0  0  0  0  0  0  0  0
    8.4342   -0.3255   18.9283 C   0  0  0  0  0  0  0  0  0  0  0  0
    6.3505   -4.4179   25.1432 C   0  0  0  0  0  0  0  0  0  0  0  0
    8.0913   -0.4038   20.2685 C   0  0  0  0  0  0  0  0  0  0  0  0
    7.4880   -3.9048   23.0744 C   0  0  0  0  0  0  0  0  0  0  0  0
   13.0425   -1.2619   22.7405 C   0  0  0  0  0  0  0  0  0  0  0  0
   11.2296   -0.1565   22.2319 C   0  0  0  0  0  0  0  0  0  0  0  0
    9.9426    3.7673   22.5212 C   0  0  0  0  0  0  0  0  0  0  0  0
    9.8904    2.4619   22.8042 C   0  0  0  0  0  0  0  0  0  0  0  0
    9.4079    1.4884   21.7811 C   0  0  0  0  0  0  0  0  0  0  0  0
    8.3306   -1.6117   22.4598 C   0  0  0  0  0  0  0  0  0  0  0  0
    6.8335   -4.1018   27.5832 C   0  0  0  0  0  0  0  0  0  0  0  0
   13.8082   -3.6618   22.7383 C   0  0  0  0  0  0  0  0  0  0  0  0
   14.6048   -2.0895   24.5353 C   0  0  0  0  0  0  0  0  0  0  0  0
   15.4899   -1.9056   22.2193 C   0  0  0  0  0  0  0  0  0  0  0  0
    5.8060   -3.9805   26.4607 C   0  0  0  0  0  0  0  0  0  0  0  0
    9.0605   -0.9529   21.2920 C   0  0  2  0  0  0  0  0  0  0  0  0
   14.2182   -2.2051   23.0449 C   0  0  0  0  0  0  0  0  0  0  0  0
    7.6162    0.1534   17.9644 N   0  0  0  0  0  0  0  0  0  0  0  0
   12.1021    0.7692   22.6403 N   0  0  0  0  0  0  0  0  0  0  0  0
    8.1260   -2.9692   22.2258 N   0  0  0  0  0  0  0  0  0  0  0  0
    9.9477    0.1451   21.8188 N   0  0  0  0  0  0  0  0  0  0  0  0
    8.6004    1.8692   20.9331 O   0  0  0  0  0  0  0  0  0  0  0  0
    7.9831   -0.9698   23.4475 O   0  0  0  0  0  0  0  0  0  0  0  0
   13.2534    0.0607   22.9625 O   0  0  0  0  0  0  0  0  0  0  0  0
    6.6486   -7.1971   23.2071 H   0  0  0  0  0  0  0  0  0  0  0  0
    4.9671    0.8863   19.9500 H   0  0  0  0  0  0  0  0  0  0  0  0
    5.7433   -6.4759   25.3918 H   0  0  0  0  0  0  0  0  0  0  0  0
    6.5121   -0.0039   21.6826 H   0  0  0  0  0  0  0  0  0  0  0  0
    7.7621   -5.5674   21.7204 H   0  0  0  0  0  0  0  0  0  0  0  0
    7.0696   -2.4566   24.6172 H   0  0  0  0  0  0  0  0  0  0  0  0
   11.3043   -2.3913   22.0069 H   0  0  0  0  0  0  0  0  0  0  0  0
    5.7548    0.9541   17.5785 H   0  0  0  0  0  0  0  0  0  0  0  0
    9.4068   -0.6551   18.5761 H   0  0  0  0  0  0  0  0  0  0  0  0
   10.3161    4.4682   23.2604 H   0  0  0  0  0  0  0  0  0  0  0  0
    9.6167    4.1711   21.5691 H   0  0  0  0  0  0  0  0  0  0  0  0
   10.2415    2.0977   23.7628 H   0  0  0  0  0  0  0  0  0  0  0  0
    7.2037   -5.1292   27.6674 H   0  0  0  0  0  0  0  0  0  0  0  0
    6.3925   -3.8205   28.5446 H   0  0  0  0  0  0  0  0  0  0  0  0
    7.6936   -3.4488   27.4005 H   0  0  0  0  0  0  0  0  0  0  0  0
   14.6304   -4.3562   22.9472 H   0  0  0  0  0  0  0  0  0  0  0  0
   12.9533   -3.9877   23.3410 H   0  0  0  0  0  0  0  0  0  0  0  0
   13.5314   -3.7800   21.6839 H   0  0  0  0  0  0  0  0  0  0  0  0
   15.4411   -2.7461   24.7988 H   0  0  0  0  0  0  0  0  0  0  0  0
   14.9093   -1.0667   24.7866 H   0  0  0  0  0  0  0  0  0  0  0  0
   13.7612   -2.3551   25.1834 H   0  0  0  0  0  0  0  0  0  0  0  0
   16.2980   -2.6030   22.4714 H   0  0  0  0  0  0  0  0  0  0  0  0
   15.3049   -2.0034   21.1431 H   0  0  0  0  0  0  0  0  0  0  0  0
   15.8665   -0.8940   22.4108 H   0  0  0  0  0  0  0  0  0  0  0  0
    5.4561   -2.9371   26.4047 H   0  0  0  0  0  0  0  0  0  0  0  0
    4.9144   -4.5725   26.7237 H   0  0  0  0  0  0  0  0  0  0  0  0
    9.7168   -1.6990   20.8274 H   0  0  0  0  0  0  0  0  0  0  0  0
    8.4764   -3.3306   21.3411 H   0  0  0  0  0  0  0  0  0  0  0  0
  1  3  1  0  0  0  0
  1  5  2  0  0  0  0
  2  4  2  0  0  0  0
  2  8  1  0  0  0  0
  3 10  2  0  0  0  0
  4 11  1  0  0  0  0
  5 12  1  0  0  0  0
  6 10  1  0  0  0  0
  6 12  2  0  0  0  0
  7 13  2  0  0  0  0
  7 14  1  0  0  0  0
  8 26  2  0  0  0  0
  9 11  2  0  0  0  0
  9 26  1  0  0  0  0
 10 23  1  0  0  0  0
 11 24  1  0  0  0  0
 12 28  1  0  0  0  0
 13 25  1  0  0  0  0
 13 32  1  0  0  0  0
 14 27  2  0  0  0  0
 14 29  1  0  0  0  0
 15 16  2  0  0  0  0
 16 17  1  0  0  0  0
 17 29  1  0  0  0  0
 17 30  2  0  0  0  0
 18 24  1  0  0  0  0
 18 28  1  0  0  0  0
 18 31  2  0  0  0  0
 19 23  1  0  0  0  0
 20 25  1  0  0  0  0
 21 25  1  0  0  0  0
 22 25  1  0  0  0  0
 24 29  1  0  0  0  0
 27 32  1  0  0  0  0
  1 33  1  0  0  0  0
  2 34  1  0  0  0  0
  3 35  1  0  0  0  0
  4 36  1  0  0  0  0
  5 37  1  0  0  0  0
  6 38  1  0  0  0  0
  7 39  1  0  0  0  0
  8 40  1  0  0  0  0
  9 41  1  0  0  0  0
 15 42  1  0  0  0  0
 15 43  1  0  0  0  0
 16 44  1  0  0  0  0
 19 45  1  0  0  0  0
 19 46  1  0  0  0  0
 19 47  1  0  0  0  0
 20 48  1  0  0  0  0
 20 49  1  0  0  0  0
 20 50  1  0  0  0  0
 21 51  1  0  0  0  0
 21 52  1  0  0  0  0
 21 53  1  0  0  0  0
 22 54  1  0  0  0  0
 22 55  1  0  0  0  0
 22 56  1  0  0  0  0
 23 57  1  0  0  0  0
 23 58  1  0  0  0  0
 24 59  1  0  0  0  0
 28 60  1  0  0  0  0
M  END
> <series>
3-aminopyridine-like

> <r_inhibition_at_20_uM>
6.7860531265

> <r_inhibition_at_50_uM>

> <r_IC50>

> <f_inhibition_at_20_uM>
15.58244

> <f_inhibition_at_50_uM>
43.080275

> <f_avg_IC50>
99.01

> <f_avg_pIC50>

> <ASSAYED>
True

> <Hybrid2>
-9.098002

> <docked_fragment>
x0678

> <Mpro-_dock>
-4.549341

> <site>
active-noncovalent

$$$$
EDJ-MED-e58735b6-3
  -OEChem-07042000473D

 36 37  0     0  0  0  0  0  0999 V2000
   10.8800   -0.8226   25.6306 C   0  0  0  0  0  0  0  0  0  0  0  0
    9.6666   -1.1258   25.0132 C   0  0  0  0  0  0  0  0  0  0  0  0
   12.0668   -0.8751   24.8995 C   0  0  0  0  0  0  0  0  0  0  0  0
    5.6229    1.4251   18.5753 C   0  0  0  0  0  0  0  0  0  0  0  0
   10.8267   -1.5341   22.9336 C   0  0  0  0  0  0  0  0  0  0  0  0
    6.3809    0.9877   17.5012 C   0  0  0  0  0  0  0  0  0  0  0  0
    7.6542   -0.3773   18.8405 C   0  0  0  0  0  0  0  0  0  0  0  0
    9.6399   -1.4816   23.6647 C   0  0  0  0  0  0  0  0  0  0  0  0
    5.9223    0.9151   19.8337 C   0  0  0  0  0  0  0  0  0  0  0  0
    6.9559   -0.0037   19.9775 C   0  0  0  0  0  0  0  0  0  0  0  0
   12.0402   -1.2309   23.5511 C   0  0  0  0  0  0  0  0  0  0  0  0
    8.3040   -1.4740   21.5157 C   0  0  0  0  0  0  0  0  0  0  0  0
    5.1214    1.3698   21.0096 C   0  0  0  0  0  0  0  0  0  0  0  0
    8.3420   -1.8056   23.0053 C   0  0  0  0  0  0  0  0  0  0  0  0
    7.3925    0.0965   17.6016 N   0  0  0  0  0  0  0  0  0  0  0  0
   14.6638   -0.8535   23.8319 N   0  0  0  0  0  0  0  0  0  0  0  0
    7.2986   -0.5516   21.2365 N   0  0  0  0  0  0  0  0  0  0  0  0
    9.0830   -1.9875   20.7191 O   0  0  0  0  0  0  0  0  0  0  0  0
   13.7663   -2.6813   22.2511 O   0  0  0  0  0  0  0  0  0  0  0  0
   13.4894   -0.2586   21.6175 O   0  0  0  0  0  0  0  0  0  0  0  0
   13.5260   -1.2978   22.6371 S   0  0  0  0  0  0  0  0  0  0  0  0
   10.9008   -0.5448   26.6804 H   0  0  0  0  0  0  0  0  0  0  0  0
    8.7467   -1.0812   25.5904 H   0  0  0  0  0  0  0  0  0  0  0  0
   13.0065   -0.6374   25.3910 H   0  0  0  0  0  0  0  0  0  0  0  0
    4.8232    2.1432   18.4294 H   0  0  0  0  0  0  0  0  0  0  0  0
   10.8044   -1.8114   21.8824 H   0  0  0  0  0  0  0  0  0  0  0  0
    6.1876    1.3553   16.4988 H   0  0  0  0  0  0  0  0  0  0  0  0
    8.4713   -1.0910   18.8882 H   0  0  0  0  0  0  0  0  0  0  0  0
    4.2541    0.7153   21.1543 H   0  0  0  0  0  0  0  0  0  0  0  0
    5.7234    1.3606   21.9265 H   0  0  0  0  0  0  0  0  0  0  0  0
    4.7645    2.3981   20.8722 H   0  0  0  0  0  0  0  0  0  0  0  0
    8.1102   -2.8772   23.1216 H   0  0  0  0  0  0  0  0  0  0  0  0
    7.5179   -1.2634   23.4975 H   0  0  0  0  0  0  0  0  0  0  0  0
   15.2920   -1.5814   24.1937 H   0  0  0  0  0  0  0  0  0  0  0  0
   15.1003    0.0737   23.7608 H   0  0  0  0  0  0  0  0  0  0  0  0
    6.7460   -0.2347   22.0304 H   0  0  0  0  0  0  0  0  0  0  0  0
  1  2  2  0  0  0  0
  1  3  1  0  0  0  0
  2  8  1  0  0  0  0
  3 11  2  0  0  0  0
  4  6  2  0  0  0  0
  4  9  1  0  0  0  0
  5  8  2  0  0  0  0
  5 11  1  0  0  0  0
  6 15  1  0  0  0  0
  7 10  1  0  0  0  0
  7 15  2  0  0  0  0
  8 14  1  0  0  0  0
  9 10  2  0  0  0  0
  9 13  1  0  0  0  0
 10 17  1  0  0  0  0
 11 21  1  0  0  0  0
 12 14  1  0  0  0  0
 12 17  1  0  0  0  0
 12 18  2  0  0  0  0
 16 21  1  0  0  0  0
 19 21  2  0  0  0  0
 20 21  2  0  0  0  0
  1 22  1  0  0  0  0
  2 23  1  0  0  0  0
  3 24  1  0  0  0  0
  4 25  1  0  0  0  0
  5 26  1  0  0  0  0
  6 27  1  0  0  0  0
  7 28  1  0  0  0  0
 13 29  1  0  0  0  0
 13 30  1  0  0  0  0
 13 31  1  0  0  0  0
 14 32  1  0  0  0  0
 14 33  1  0  0  0  0
 16 34  1  0  0  0  0
 16 35  1  0  0  0  0
 17 36  1  0  0  0  0
M  END
> <series>
3-aminopyridine-like

> <r_inhibition_at_20_uM>

> <r_inhibition_at_50_uM>
11.54

> <r_IC50>

> <f_inhibition_at_20_uM>
11.1451625

> <f_inhibition_at_50_uM>
6.2286075

> <f_avg_IC50>

> <f_avg_pIC50>

> <ASSAYED>
True

> <Hybrid2>
-9.091099

> <docked_fragment>
x0678

> <Mpro-_dock>
-5.409214

> <site>
active-noncovalent

$$$$
TRY-UNI-714a760b-24
  -OEChem-07042000473D

 31 32  0     0  0  0  0  0  0999 V2000
   14.1336   -1.1582   25.7023 C   0  0  0  0  0  0  0  0  0  0  0  0
   14.2733   -1.3351   21.9867 C   0  0  0  0  0  0  0  0  0  0  0  0
   14.6571   -1.4003   23.3261 C   0  0  0  0  0  0  0  0  0  0  0  0
   12.9723   -0.9600   21.6515 C   0  0  0  0  0  0  0  0  0  0  0  0
    5.7225    1.1210   19.3160 C   0  0  0  0  0  0  0  0  0  0  0  0
   12.4389   -0.7155   23.9951 C   0  0  0  0  0  0  0  0  0  0  0  0
    6.1965    0.9327   18.0277 C   0  0  0  0  0  0  0  0  0  0  0  0
    8.2817    0.3371   18.7860 C   0  0  0  0  0  0  0  0  0  0  0  0
   13.7399   -1.0906   24.3303 C   0  0  0  0  0  0  0  0  0  0  0  0
    6.5997    0.8973   20.3713 C   0  0  0  0  0  0  0  0  0  0  0  0
   12.0551   -0.6502   22.6556 C   0  0  0  0  0  0  0  0  0  0  0  0
    7.9056    0.4977   20.1099 C   0  0  0  0  0  0  0  0  0  0  0  0
   10.1750   -0.1469   21.0337 C   0  0  0  0  0  0  0  0  0  0  0  0
    6.1154    1.0933   21.7705 C   0  0  0  0  0  0  0  0  0  0  0  0
   14.4535   -1.2130   26.8165 N   0  0  0  0  0  0  0  0  0  0  0  0
    7.4580    0.5451   17.7345 N   0  0  0  0  0  0  0  0  0  0  0  0
   10.7544   -0.2739   22.3198 N   0  0  0  0  0  0  0  0  0  0  0  0
    8.8353    0.2573   21.1490 N   0  0  0  0  0  0  0  0  0  0  0  0
   10.7634   -0.3603   19.9785 O   0  0  0  0  0  0  0  0  0  0  0  0
   14.9879   -1.5754   21.2047 H   0  0  0  0  0  0  0  0  0  0  0  0
   15.6746   -1.6950   23.5713 H   0  0  0  0  0  0  0  0  0  0  0  0
   12.6844   -0.9125   20.6042 H   0  0  0  0  0  0  0  0  0  0  0  0
    4.6979    1.4336   19.4860 H   0  0  0  0  0  0  0  0  0  0  0  0
   11.7204   -0.4737   24.7760 H   0  0  0  0  0  0  0  0  0  0  0  0
    5.5521    1.0943   17.1698 H   0  0  0  0  0  0  0  0  0  0  0  0
    9.2873    0.0265   18.5180 H   0  0  0  0  0  0  0  0  0  0  0  0
    5.6978    0.1587   22.1624 H   0  0  0  0  0  0  0  0  0  0  0  0
    6.9302    1.4160   22.4304 H   0  0  0  0  0  0  0  0  0  0  0  0
    5.3409    1.8690   21.8168 H   0  0  0  0  0  0  0  0  0  0  0  0
   10.1354   -0.0608   23.1093 H   0  0  0  0  0  0  0  0  0  0  0  0
    8.4837    0.3967   22.0930 H   0  0  0  0  0  0  0  0  0  0  0  0
  1  9  1  0  0  0  0
  1 15  3  0  0  0  0
  2  3  1  0  0  0  0
  2  4  2  0  0  0  0
  3  9  2  0  0  0  0
  4 11  1  0  0  0  0
  5  7  2  0  0  0  0
  5 10  1  0  0  0  0
  6  9  1  0  0  0  0
  6 11  2  0  0  0  0
  7 16  1  0  0  0  0
  8 12  1  0  0  0  0
  8 16  2  0  0  0  0
 10 12  2  0  0  0  0
 10 14  1  0  0  0  0
 11 17  1  0  0  0  0
 12 18  1  0  0  0  0
 13 17  1  0  0  0  0
 13 18  1  0  0  0  0
 13 19  2  0  0  0  0
  2 20  1  0  0  0  0
  3 21  1  0  0  0  0
  4 22  1  0  0  0  0
  5 23  1  0  0  0  0
  6 24  1  0  0  0  0
  7 25  1  0  0  0  0
  8 26  1  0  0  0  0
 14 27  1  0  0  0  0
 14 28  1  0  0  0  0
 14 29  1  0  0  0  0
 17 30  1  0  0  0  0
 18 31  1  0  0  0  0
M  END
> <series>
3-aminopyridine-like

> <r_inhibition_at_20_uM>
23.7925

> <r_inhibition_at_50_uM>
55.705

> <r_IC50>
49.329213054573174

> <f_inhibition_at_20_uM>
19.37242

> <f_inhibition_at_50_uM>
44.289915

> <f_avg_IC50>
99.01

> <f_avg_pIC50>

> <ASSAYED>
True

> <Hybrid2>
-9.019551

> <docked_fragment>
x0678

> <Mpro-_dock>
-5.809767

> <site>
active-noncovalent

$$$$
DAR-DIA-23aa0b97-8
  -OEChem-07042000473D

 30 31  0     0  0  0  0  0  0999 V2000
   14.8440   -2.0985   21.8594 C   0  0  0  0  0  0  0  0  0  0  0  0
   13.2424   -0.5750   24.8543 C   0  0  0  0  0  0  0  0  0  0  0  0
   14.1734   -1.2205   24.0407 C   0  0  0  0  0  0  0  0  0  0  0  0
   12.0273   -0.1466   24.3198 C   0  0  0  0  0  0  0  0  0  0  0  0
   12.6743   -1.0093   22.1578 C   0  0  0  0  0  0  0  0  0  0  0  0
    6.6984    1.1914   19.9100 C   0  0  0  0  0  0  0  0  0  0  0  0
    6.4237    0.7184   17.5954 C   0  0  0  0  0  0  0  0  0  0  0  0
    8.3707    0.0807   18.6349 C   0  0  0  0  0  0  0  0  0  0  0  0
   13.8894   -1.4376   22.6924 C   0  0  0  0  0  0  0  0  0  0  0  0
   11.7433   -0.3638   22.9715 C   0  0  0  0  0  0  0  0  0  0  0  0
    5.9135    1.2597   18.7644 C   0  0  0  0  0  0  0  0  0  0  0  0
    7.9518    0.5923   19.8525 C   0  0  0  0  0  0  0  0  0  0  0  0
   10.0532   -0.0600   21.1086 C   0  0  0  0  0  0  0  0  0  0  0  0
   15.6192   -2.6353   21.1829 N   0  0  0  0  0  0  0  0  0  0  0  0
    7.6364    0.1285   17.5008 N   0  0  0  0  0  0  0  0  0  0  0  0
    4.6436    1.8591   18.7914 N   0  0  0  0  0  0  0  0  0  0  0  0
   10.5273    0.0636   22.4375 N   0  0  0  0  0  0  0  0  0  0  0  0
    8.7734    0.5076   21.0013 N   0  0  0  0  0  0  0  0  0  0  0  0
   10.6749   -0.5868   20.1915 O   0  0  0  0  0  0  0  0  0  0  0  0
   13.4632   -0.4067   25.9045 H   0  0  0  0  0  0  0  0  0  0  0  0
   15.1163   -1.5477   24.4721 H   0  0  0  0  0  0  0  0  0  0  0  0
   11.3092    0.3553   24.9634 H   0  0  0  0  0  0  0  0  0  0  0  0
   12.4497   -1.1765   21.1061 H   0  0  0  0  0  0  0  0  0  0  0  0
    6.3331    1.6070   20.8465 H   0  0  0  0  0  0  0  0  0  0  0  0
    5.8564    0.7402   16.6697 H   0  0  0  0  0  0  0  0  0  0  0  0
    9.3390   -0.3991   18.5271 H   0  0  0  0  0  0  0  0  0  0  0  0
    4.2776    2.2016   19.6600 H   0  0  0  0  0  0  0  0  0  0  0  0
    4.0776    1.8538   17.9634 H   0  0  0  0  0  0  0  0  0  0  0  0
    9.8924    0.5293   23.0946 H   0  0  0  0  0  0  0  0  0  0  0  0
    8.3835    0.9097   21.8500 H   0  0  0  0  0  0  0  0  0  0  0  0
  1  9  1  0  0  0  0
  1 14  3  0  0  0  0
  2  3  2  0  0  0  0
  2  4  1  0  0  0  0
  3  9  1  0  0  0  0
  4 10  2  0  0  0  0
  5  9  2  0  0  0  0
  5 10  1  0  0  0  0
  6 11  1  0  0  0  0
  6 12  2  0  0  0  0
  7 11  2  0  0  0  0
  7 15  1  0  0  0  0
  8 12  1  0  0  0  0
  8 15  2  0  0  0  0
 10 17  1  0  0  0  0
 11 16  1  0  0  0  0
 12 18  1  0  0  0  0
 13 17  1  0  0  0  0
 13 18  1  0  0  0  0
 13 19  2  0  0  0  0
  2 20  1  0  0  0  0
  3 21  1  0  0  0  0
  4 22  1  0  0  0  0
  5 23  1  0  0  0  0
  6 24  1  0  0  0  0
  7 25  1  0  0  0  0
  8 26  1  0  0  0  0
 16 27  1  0  0  0  0
 16 28  1  0  0  0  0
 17 29  1  0  0  0  0
 18 30  1  0  0  0  0
M  END
> <series>
3-aminopyridine-like

> <r_inhibition_at_20_uM>
9.085

> <r_inhibition_at_50_uM>
48.40000000000001

> <r_IC50>

> <f_inhibition_at_20_uM>

> <f_inhibition_at_50_uM>
57.24191999999999

> <f_avg_IC50>
54.272963984987776

> <f_avg_pIC50>
4.265416459843516

> <ASSAYED>
True

> <Hybrid2>
-9.005548

> <docked_fragment>
x0678

> <Mpro-_dock>
-6.139726

> <site>
active-noncovalent

$$$$
LON-WEI-adc59df6-39
  -OEChem-07042000473D

 62 64  0     1  0  0  0  0  0999 V2000
    6.0669    0.7609   19.8540 C   0  0  0  0  0  0  0  0  0  0  0  0
    6.8701    0.2842   20.8840 C   0  0  0  0  0  0  0  0  0  0  0  0
   12.8843   -0.3364   24.4190 C   0  0  0  0  0  0  0  0  0  0  0  0
   13.2970   -1.4904   22.3369 C   0  0  0  0  0  0  0  0  0  0  0  0
   11.6503    0.0969   23.9343 C   0  0  0  0  0  0  0  0  0  0  0  0
   12.0629   -1.0571   21.8522 C   0  0  0  0  0  0  0  0  0  0  0  0
    6.5434    0.6539   18.5574 C   0  0  0  0  0  0  0  0  0  0  0  0
    8.4928   -0.3379   19.2604 C   0  0  0  0  0  0  0  0  0  0  0  0
   13.7077   -1.1300   23.6203 C   0  0  0  0  0  0  0  0  0  0  0  0
    8.1078   -0.2771   20.5900 C   0  0  0  0  0  0  0  0  0  0  0  0
   11.2395   -0.2634   22.6509 C   0  0  0  0  0  0  0  0  0  0  0  0
   10.9247    3.6873   22.3372 C   0  0  0  0  0  0  0  0  0  0  0  0
   10.9033    2.4353   21.8690 C   0  0  0  0  0  0  0  0  0  0  0  0
    9.6851    1.5896   22.0364 C   0  0  0  0  0  0  0  0  0  0  0  0
    8.2014   -1.2869   22.8895 C   0  0  0  0  0  0  0  0  0  0  0  0
    7.7305   -3.2464   25.1548 C   0  0  0  0  0  0  0  0  0  0  0  0
    6.8481   -4.7802   23.3747 C   0  0  0  0  0  0  0  0  0  0  0  0
    6.9576   -4.0870   26.1631 C   0  0  0  0  0  0  0  0  0  0  0  0
    6.1232   -5.5339   24.4825 C   0  0  0  0  0  0  0  0  0  0  0  0
    7.0763   -3.3218   23.7749 C   0  0  0  0  0  0  0  0  0  0  0  0
   14.8573   -2.4566   25.4271 C   0  0  0  0  0  0  0  0  0  0  0  0
   15.9488   -0.3870   24.4990 C   0  0  0  0  0  0  0  0  0  0  0  0
   15.8633   -2.4759   23.1534 C   0  0  0  0  0  0  0  0  0  0  0  0
    9.0035   -0.8047   21.6866 C   0  0  2  0  0  0  0  0  0  0  0  0
   15.0272   -1.5933   24.1386 C   0  0  0  0  0  0  0  0  0  0  0  0
    7.7399    0.1149   18.2329 N   0  0  0  0  0  0  0  0  0  0  0  0
    7.8698   -2.6299   22.7901 N   0  0  0  0  0  0  0  0  0  0  0  0
    9.9420    0.1918   22.1411 N   0  0  0  0  0  0  0  0  0  0  0  0
    8.5823    2.1364   22.0698 O   0  0  0  0  0  0  0  0  0  0  0  0
    7.8657   -0.5424   23.8086 O   0  0  0  0  0  0  0  0  0  0  0  0
    6.8399   -5.4366   25.7131 O   0  0  0  0  0  0  0  0  0  0  0  0
    5.0983    1.2022   20.0597 H   0  0  0  0  0  0  0  0  0  0  0  0
    6.5238    0.3539   21.9116 H   0  0  0  0  0  0  0  0  0  0  0  0
   13.1973   -0.0491   25.4194 H   0  0  0  0  0  0  0  0  0  0  0  0
   13.9325   -2.1078   21.7075 H   0  0  0  0  0  0  0  0  0  0  0  0
   11.0165    0.7147   24.5656 H   0  0  0  0  0  0  0  0  0  0  0  0
   11.7531   -1.3428   20.8501 H   0  0  0  0  0  0  0  0  0  0  0  0
    5.9548    1.0114   17.7189 H   0  0  0  0  0  0  0  0  0  0  0  0
    9.4477   -0.7652   18.9701 H   0  0  0  0  0  0  0  0  0  0  0  0
   11.8043    4.3058   22.1925 H   0  0  0  0  0  0  0  0  0  0  0  0
   10.0889    4.1239   22.8728 H   0  0  0  0  0  0  0  0  0  0  0  0
   11.7543    2.0427   21.3247 H   0  0  0  0  0  0  0  0  0  0  0  0
    7.7073   -2.2026   25.4824 H   0  0  0  0  0  0  0  0  0  0  0  0
    8.7774   -3.5541   25.1166 H   0  0  0  0  0  0  0  0  0  0  0  0
    7.7863   -5.2753   23.1202 H   0  0  0  0  0  0  0  0  0  0  0  0
    6.2182   -4.7886   22.4811 H   0  0  0  0  0  0  0  0  0  0  0  0
    7.4318   -4.0712   27.1519 H   0  0  0  0  0  0  0  0  0  0  0  0
    5.9449   -3.6871   26.2800 H   0  0  0  0  0  0  0  0  0  0  0  0
    5.1316   -5.0987   24.6403 H   0  0  0  0  0  0  0  0  0  0  0  0
    5.9818   -6.5899   24.2257 H   0  0  0  0  0  0  0  0  0  0  0  0
    6.1100   -2.7960   23.8018 H   0  0  0  0  0  0  0  0  0  0  0  0
   15.8138   -2.8104   25.8292 H   0  0  0  0  0  0  0  0  0  0  0  0
   14.3635   -1.8925   26.2259 H   0  0  0  0  0  0  0  0  0  0  0  0
   14.2386   -3.3367   25.2149 H   0  0  0  0  0  0  0  0  0  0  0  0
   16.9192   -0.7232   24.8802 H   0  0  0  0  0  0  0  0  0  0  0  0
   16.1504    0.2637   23.6399 H   0  0  0  0  0  0  0  0  0  0  0  0
   15.4831    0.2260   25.2797 H   0  0  0  0  0  0  0  0  0  0  0  0
   16.8235   -2.7911   23.5794 H   0  0  0  0  0  0  0  0  0  0  0  0
   15.3157   -3.3871   22.8856 H   0  0  0  0  0  0  0  0  0  0  0  0
   16.0853   -1.9270   22.2308 H   0  0  0  0  0  0  0  0  0  0  0  0
    9.6182   -1.6334   21.3148 H   0  0  0  0  0  0  0  0  0  0  0  0
    8.1918   -3.1665   21.9913 H   0  0  0  0  0  0  0  0  0  0  0  0
  1  2  2  0  0  0  0
  1  7  1  0  0  0  0
  2 10  1  0  0  0  0
  3  5  2  0  0  0  0
  3  9  1  0  0  0  0
  4  6  1  0  0  0  0
  4  9  2  0  0  0  0
  5 11  1  0  0  0  0
  6 11  2  0  0  0  0
  7 26  2  0  0  0  0
  8 10  2  0  0  0  0
  8 26  1  0  0  0  0
  9 25  1  0  0  0  0
 10 24  1  0  0  0  0
 11 28  1  0  0  0  0
 12 13  2  0  0  0  0
 13 14  1  0  0  0  0
 14 28  1  0  0  0  0
 14 29  2  0  0  0  0
 15 24  1  0  0  0  0
 15 27  1  0  0  0  0
 15 30  2  0  0  0  0
 16 18  1  0  0  0  0
 16 20  1  0  0  0  0
 17 19  1  0  0  0  0
 17 20  1  0  0  0  0
 18 31  1  0  0  0  0
 19 31  1  0  0  0  0
 20 27  1  0  0  0  0
 21 25  1  0  0  0  0
 22 25  1  0  0  0  0
 23 25  1  0  0  0  0
 24 28  1  0  0  0  0
  1 32  1  0  0  0  0
  2 33  1  0  0  0  0
  3 34  1  0  0  0  0
  4 35  1  0  0  0  0
  5 36  1  0  0  0  0
  6 37  1  0  0  0  0
  7 38  1  0  0  0  0
  8 39  1  0  0  0  0
 12 40  1  0  0  0  0
 12 41  1  0  0  0  0
 13 42  1  0  0  0  0
 16 43  1  0  0  0  0
 16 44  1  0  0  0  0
 17 45  1  0  0  0  0
 17 46  1  0  0  0  0
 18 47  1  0  0  0  0
 18 48  1  0  0  0  0
 19 49  1  0  0  0  0
 19 50  1  0  0  0  0
 20 51  1  0  0  0  0
 21 52  1  0  0  0  0
 21 53  1  0  0  0  0
 21 54  1  0  0  0  0
 22 55  1  0  0  0  0
 22 56  1  0  0  0  0
 22 57  1  0  0  0  0
 23 58  1  0  0  0  0
 23 59  1  0  0  0  0
 23 60  1  0  0  0  0
 24 61  1  0  0  0  0
 27 62  1  0  0  0  0
M  END
> <series>
3-aminopyridine-like

> <r_inhibition_at_20_uM>
0.8409547847832002

> <r_inhibition_at_50_uM>
31.08869107901318

> <r_IC50>

> <f_inhibition_at_20_uM>
9.005827

> <f_inhibition_at_50_uM>
0.6676884

> <f_avg_IC50>

> <f_avg_pIC50>

> <ASSAYED>
True

> <Hybrid2>
-8.985720

> <docked_fragment>
x0678

> <Mpro-_dock>
-5.087429

> <site>
active-noncovalent

$$$$
LON-WEI-d1c9908a-13
  -OEChem-07042000473D

 59 62  0     1  0  0  0  0  0999 V2000
    5.7455   -3.9229   25.3109 C   0  0  0  0  0  0  0  0  0  0  0  0
    6.0566    0.8609   19.7151 C   0  0  0  0  0  0  0  0  0  0  0  0
   12.4621   -2.3534   23.3690 C   0  0  0  0  0  0  0  0  0  0  0  0
   13.5873   -0.3704   22.5700 C   0  0  0  0  0  0  0  0  0  0  0  0
    6.8446    0.2734   20.6986 C   0  0  0  0  0  0  0  0  0  0  0  0
    6.5005   -3.1325   24.4445 C   0  0  0  0  0  0  0  0  0  0  0  0
   11.2404   -1.8314   22.9443 C   0  0  0  0  0  0  0  0  0  0  0  0
   12.3656    0.1517   22.1451 C   0  0  0  0  0  0  0  0  0  0  0  0
    5.4386   -5.2391   24.9656 C   0  0  0  0  0  0  0  0  0  0  0  0
    6.5044    0.8035   18.4052 C   0  0  0  0  0  0  0  0  0  0  0  0
    8.3983   -0.3484   19.0088 C   0  0  0  0  0  0  0  0  0  0  0  0
   13.6356   -1.6229   23.1819 C   0  0  0  0  0  0  0  0  0  0  0  0
    8.0394   -0.3448   20.3470 C   0  0  0  0  0  0  0  0  0  0  0  0
    6.6416   -4.9742   22.8872 C   0  0  0  0  0  0  0  0  0  0  0  0
   11.1921   -0.5788   22.3323 C   0  0  0  0  0  0  0  0  0  0  0  0
    6.9485   -3.6581   23.2326 C   0  0  0  0  0  0  0  0  0  0  0  0
    5.8867   -5.7647   23.7537 C   0  0  0  0  0  0  0  0  0  0  0  0
   10.7307    3.4110   22.7003 C   0  0  0  0  0  0  0  0  0  0  0  0
   10.3659    2.1452   22.9272 C   0  0  0  0  0  0  0  0  0  0  0  0
    9.6866    1.3544   21.8592 C   0  0  0  0  0  0  0  0  0  0  0  0
    8.0984   -1.5169   22.5698 C   0  0  0  0  0  0  0  0  0  0  0  0
   15.1041   -2.4955   25.1118 C   0  0  0  0  0  0  0  0  0  0  0  0
   15.8120   -1.3136   24.5270 C   0  0  0  0  0  0  0  0  0  0  0  0
   14.9408   -2.1804   23.6358 C   0  0  0  0  0  0  0  0  0  0  0  0
    7.1099   -5.5604   21.5948 C   0  0  0  0  0  0  0  0  0  0  0  0
   15.6264   -3.0811   22.6462 C   0  0  0  0  0  0  0  0  0  0  0  0
    8.9185   -0.9935   21.3933 C   0  0  2  0  0  0  0  0  0  0  0  0
    7.6591    0.2119   18.0253 N   0  0  0  0  0  0  0  0  0  0  0  0
    7.7131   -2.8398   22.3675 N   0  0  0  0  0  0  0  0  0  0  0  0
    9.9198   -0.0350   21.8899 N   0  0  0  0  0  0  0  0  0  0  0  0
    8.9925    1.9464   21.0323 O   0  0  0  0  0  0  0  0  0  0  0  0
    7.8350   -0.8086   23.5378 O   0  0  0  0  0  0  0  0  0  0  0  0
    5.5862   -7.0308   23.4316 F   0  0  0  0  0  0  0  0  0  0  0  0
    5.3965   -3.5138   26.2546 H   0  0  0  0  0  0  0  0  0  0  0  0
    5.1213    1.3481   19.9660 H   0  0  0  0  0  0  0  0  0  0  0  0
   12.4893   -3.3302   23.8448 H   0  0  0  0  0  0  0  0  0  0  0  0
   14.4964    0.2061   22.4198 H   0  0  0  0  0  0  0  0  0  0  0  0
    6.5200    0.3018   21.7352 H   0  0  0  0  0  0  0  0  0  0  0  0
    6.7331   -2.1082   24.7249 H   0  0  0  0  0  0  0  0  0  0  0  0
   10.3322   -2.4094   23.0953 H   0  0  0  0  0  0  0  0  0  0  0  0
   12.3403    1.1289   21.6695 H   0  0  0  0  0  0  0  0  0  0  0  0
    4.8509   -5.8547   25.6401 H   0  0  0  0  0  0  0  0  0  0  0  0
    5.9262    1.2472   17.6013 H   0  0  0  0  0  0  0  0  0  0  0  0
    9.3194   -0.8157   18.6745 H   0  0  0  0  0  0  0  0  0  0  0  0
   11.2450    3.9741   23.4720 H   0  0  0  0  0  0  0  0  0  0  0  0
   10.5278    3.9174   21.7631 H   0  0  0  0  0  0  0  0  0  0  0  0
   10.6025    1.6711   23.8727 H   0  0  0  0  0  0  0  0  0  0  0  0
   15.7043   -3.3523   25.3953 H   0  0  0  0  0  0  0  0  0  0  0  0
   14.2732   -2.3036   25.7811 H   0  0  0  0  0  0  0  0  0  0  0  0
   15.4568   -0.3278   24.8048 H   0  0  0  0  0  0  0  0  0  0  0  0
   16.8884   -1.3749   24.4158 H   0  0  0  0  0  0  0  0  0  0  0  0
    8.0912   -6.0304   21.7253 H   0  0  0  0  0  0  0  0  0  0  0  0
    6.4061   -6.3157   21.2250 H   0  0  0  0  0  0  0  0  0  0  0  0
    7.1907   -4.7905   20.8177 H   0  0  0  0  0  0  0  0  0  0  0  0
   16.5776   -3.4530   23.0467 H   0  0  0  0  0  0  0  0  0  0  0  0
   15.8393   -2.5478   21.7115 H   0  0  0  0  0  0  0  0  0  0  0  0
   14.9997   -3.9486   22.4047 H   0  0  0  0  0  0  0  0  0  0  0  0
    9.4705   -1.8335   20.9539 H   0  0  0  0  0  0  0  0  0  0  0  0
    8.0168   -3.2681   21.4955 H   0  0  0  0  0  0  0  0  0  0  0  0
  1  6  2  0  0  0  0
  1  9  1  0  0  0  0
  2  5  2  0  0  0  0
  2 10  1  0  0  0  0
  3  7  2  0  0  0  0
  3 12  1  0  0  0  0
  4  8  1  0  0  0  0
  4 12  2  0  0  0  0
  5 13  1  0  0  0  0
  6 16  1  0  0  0  0
  7 15  1  0  0  0  0
  8 15  2  0  0  0  0
  9 17  2  0  0  0  0
 10 28  2  0  0  0  0
 11 13  2  0  0  0  0
 11 28  1  0  0  0  0
 12 24  1  0  0  0  0
 13 27  1  0  0  0  0
 14 16  2  0  0  0  0
 14 17  1  0  0  0  0
 14 25  1  0  0  0  0
 15 30  1  0  0  0  0
 16 29  1  0  0  0  0
 17 33  1  0  0  0  0
 18 19  2  0  0  0  0
 19 20  1  0  0  0  0
 20 30  1  0  0  0  0
 20 31  2  0  0  0  0
 21 27  1  0  0  0  0
 21 29  1  0  0  0  0
 21 32  2  0  0  0  0
 22 23  1  0  0  0  0
 22 24  1  0  0  0  0
 23 24  1  0  0  0  0
 24 26  1  0  0  0  0
 27 30  1  0  0  0  0
  1 34  1  0  0  0  0
  2 35  1  0  0  0  0
  3 36  1  0  0  0  0
  4 37  1  0  0  0  0
  5 38  1  0  0  0  0
  6 39  1  0  0  0  0
  7 40  1  0  0  0  0
  8 41  1  0  0  0  0
  9 42  1  0  0  0  0
 10 43  1  0  0  0  0
 11 44  1  0  0  0  0
 18 45  1  0  0  0  0
 18 46  1  0  0  0  0
 19 47  1  0  0  0  0
 22 48  1  0  0  0  0
 22 49  1  0  0  0  0
 23 50  1  0  0  0  0
 23 51  1  0  0  0  0
 25 52  1  0  0  0  0
 25 53  1  0  0  0  0
 25 54  1  0  0  0  0
 26 55  1  0  0  0  0
 26 56  1  0  0  0  0
 26 57  1  0  0  0  0
 27 58  1  0  0  0  0
 29 59  1  0  0  0  0
M  END
> <series>
3-aminopyridine-like

> <r_inhibition_at_20_uM>
0.0

> <r_inhibition_at_50_uM>
1.04

> <r_IC50>

> <f_inhibition_at_20_uM>

> <f_inhibition_at_50_uM>
34.65425

> <f_avg_IC50>

> <f_avg_pIC50>

> <ASSAYED>
True

> <Hybrid2>
-8.973389

> <docked_fragment>
x0678

> <Mpro-_dock>
-6.587409

> <site>
active-noncovalent

$$$$
ANN-UNI-26382800-3
  -OEChem-07042000473D

 28 29  0     0  0  0  0  0  0999 V2000
   15.1216   -1.5963   24.6315 C   0  0  0  0  0  0  0  0  0  0  0  0
    5.4497    1.1303   18.9926 C   0  0  0  0  0  0  0  0  0  0  0  0
   12.8556   -0.7430   24.9765 C   0  0  0  0  0  0  0  0  0  0  0  0
   13.5945   -1.2996   22.7446 C   0  0  0  0  0  0  0  0  0  0  0  0
    6.2275    1.0011   20.1378 C   0  0  0  0  0  0  0  0  0  0  0  0
   11.6124   -0.3638   24.4704 C   0  0  0  0  0  0  0  0  0  0  0  0
   12.3513   -0.9204   22.2385 C   0  0  0  0  0  0  0  0  0  0  0  0
    6.0150    0.7682   17.7805 C   0  0  0  0  0  0  0  0  0  0  0  0
    8.0005    0.1855   18.7787 C   0  0  0  0  0  0  0  0  0  0  0  0
   13.8467   -1.2109   24.1136 C   0  0  0  0  0  0  0  0  0  0  0  0
   11.3602   -0.4525   23.1014 C   0  0  0  0  0  0  0  0  0  0  0  0
    7.5284    0.5205   20.0375 C   0  0  0  0  0  0  0  0  0  0  0  0
    9.6669   -0.0873   21.2525 C   0  0  0  0  0  0  0  0  0  0  0  0
   16.1569   -1.9093   25.0521 N   0  0  0  0  0  0  0  0  0  0  0  0
    7.2749    0.2975   17.6435 N   0  0  0  0  0  0  0  0  0  0  0  0
   10.1167   -0.0728   22.5954 N   0  0  0  0  0  0  0  0  0  0  0  0
    8.3440    0.3782   21.1849 N   0  0  0  0  0  0  0  0  0  0  0  0
   10.3399   -0.4540   20.2945 O   0  0  0  0  0  0  0  0  0  0  0  0
    4.4332    1.5027   19.0471 H   0  0  0  0  0  0  0  0  0  0  0  0
   13.0374   -0.6669   26.0460 H   0  0  0  0  0  0  0  0  0  0  0  0
   14.3575   -1.6618   22.0594 H   0  0  0  0  0  0  0  0  0  0  0  0
    5.8104    1.2775   21.1026 H   0  0  0  0  0  0  0  0  0  0  0  0
   10.8470   -0.0012   25.1519 H   0  0  0  0  0  0  0  0  0  0  0  0
   12.1657   -0.9940   21.1699 H   0  0  0  0  0  0  0  0  0  0  0  0
    5.4500    0.8512   16.8579 H   0  0  0  0  0  0  0  0  0  0  0  0
    9.0076   -0.1952   18.6364 H   0  0  0  0  0  0  0  0  0  0  0  0
    9.4381    0.2612   23.2880 H   0  0  0  0  0  0  0  0  0  0  0  0
    7.9132    0.6487   22.0654 H   0  0  0  0  0  0  0  0  0  0  0  0
  1 10  1  0  0  0  0
  1 14  3  0  0  0  0
  2  5  2  0  0  0  0
  2  8  1  0  0  0  0
  3  6  2  0  0  0  0
  3 10  1  0  0  0  0
  4  7  1  0  0  0  0
  4 10  2  0  0  0  0
  5 12  1  0  0  0  0
  6 11  1  0  0  0  0
  7 11  2  0  0  0  0
  8 15  2  0  0  0  0
  9 12  2  0  0  0  0
  9 15  1  0  0  0  0
 11 16  1  0  0  0  0
 12 17  1  0  0  0  0
 13 16  1  0  0  0  0
 13 17  1  0  0  0  0
 13 18  2  0  0  0  0
  2 19  1  0  0  0  0
  3 20  1  0  0  0  0
  4 21  1  0  0  0  0
  5 22  1  0  0  0  0
  6 23  1  0  0  0  0
  7 24  1  0  0  0  0
  8 25  1  0  0  0  0
  9 26  1  0  0  0  0
 16 27  1  0  0  0  0
 17 28  1  0  0  0  0
M  END
> <series>
3-aminopyridine-like

> <r_inhibition_at_20_uM>
0.0

> <r_inhibition_at_50_uM>

> <r_IC50>

> <f_inhibition_at_20_uM>
5.8158525

> <f_inhibition_at_50_uM>
11.555689999999998

> <f_avg_IC50>

> <f_avg_pIC50>

> <ASSAYED>
True

> <Hybrid2>
-8.960938

> <docked_fragment>
x0678

> <Mpro-_dock>
-4.956477

> <site>
active-noncovalent

$$$$
WAR-XCH-eb7b662f-5
  -OEChem-07042000473D

 30 31  0     0  0  0  0  0  0999 V2000
    5.6622    1.1977   18.8152 C   0  0  0  0  0  0  0  0  0  0  0  0
    6.4223    1.1523   19.9786 C   0  0  0  0  0  0  0  0  0  0  0  0
   12.4866   -0.6759   22.3201 C   0  0  0  0  0  0  0  0  0  0  0  0
   13.9526   -0.8318   24.2341 C   0  0  0  0  0  0  0  0  0  0  0  0
   11.7268    0.0731   24.4877 C   0  0  0  0  0  0  0  0  0  0  0  0
    6.2384    0.7294   17.6454 C   0  0  0  0  0  0  0  0  0  0  0  0
    8.2012    0.2033   18.7173 C   0  0  0  0  0  0  0  0  0  0  0  0
   13.7172   -1.0295   22.8735 C   0  0  0  0  0  0  0  0  0  0  0  0
    7.7170    0.6472   19.9373 C   0  0  0  0  0  0  0  0  0  0  0  0
   11.4915   -0.1245   23.1271 C   0  0  0  0  0  0  0  0  0  0  0  0
   12.9574   -0.2805   25.0412 C   0  0  0  0  0  0  0  0  0  0  0  0
    9.8292    0.1110   21.2296 C   0  0  0  0  0  0  0  0  0  0  0  0
   14.7815   -1.6183   22.0104 C   0  0  0  0  0  0  0  0  0  0  0  0
    7.4928    0.2316   17.5662 N   0  0  0  0  0  0  0  0  0  0  0  0
    8.5147    0.5884   21.1044 N   0  0  0  0  0  0  0  0  0  0  0  0
   10.2609    0.2300   22.5733 N   0  0  0  0  0  0  0  0  0  0  0  0
   10.5092   -0.3433   20.3151 O   0  0  0  0  0  0  0  0  0  0  0  0
   13.2483   -0.0347   26.7196 Cl  0  0  0  0  0  0  0  0  0  0  0  0
    4.6507    1.5873   18.8240 H   0  0  0  0  0  0  0  0  0  0  0  0
    5.9962    1.5129   20.9112 H   0  0  0  0  0  0  0  0  0  0  0  0
   12.3056   -0.8309   21.2587 H   0  0  0  0  0  0  0  0  0  0  0  0
   14.9139   -1.1095   24.6606 H   0  0  0  0  0  0  0  0  0  0  0  0
   10.9488    0.5032   25.1151 H   0  0  0  0  0  0  0  0  0  0  0  0
    5.6873    0.7440   16.7109 H   0  0  0  0  0  0  0  0  0  0  0  0
    9.2043   -0.2017   18.6216 H   0  0  0  0  0  0  0  0  0  0  0  0
   15.4141   -0.8267   21.5906 H   0  0  0  0  0  0  0  0  0  0  0  0
   15.4186   -2.3085   22.5784 H   0  0  0  0  0  0  0  0  0  0  0  0
   14.3490   -2.1943   21.1818 H   0  0  0  0  0  0  0  0  0  0  0  0
    8.0829    0.9346   21.9574 H   0  0  0  0  0  0  0  0  0  0  0  0
    9.5681    0.6306   23.2146 H   0  0  0  0  0  0  0  0  0  0  0  0
  1  2  2  0  0  0  0
  1  6  1  0  0  0  0
  2  9  1  0  0  0  0
  3  8  2  0  0  0  0
  3 10  1  0  0  0  0
  4  8  1  0  0  0  0
  4 11  2  0  0  0  0
  5 10  2  0  0  0  0
  5 11  1  0  0  0  0
  6 14  2  0  0  0  0
  7  9  2  0  0  0  0
  7 14  1  0  0  0  0
  8 13  1  0  0  0  0
  9 15  1  0  0  0  0
 10 16  1  0  0  0  0
 11 18  1  0  0  0  0
 12 15  1  0  0  0  0
 12 16  1  0  0  0  0
 12 17  2  0  0  0  0
  1 19  1  0  0  0  0
  2 20  1  0  0  0  0
  3 21  1  0  0  0  0
  4 22  1  0  0  0  0
  5 23  1  0  0  0  0
  6 24  1  0  0  0  0
  7 25  1  0  0  0  0
 13 26  1  0  0  0  0
 13 27  1  0  0  0  0
 13 28  1  0  0  0  0
 15 29  1  0  0  0  0
 16 30  1  0  0  0  0
M  END
> <series>
3-aminopyridine-like

> <r_inhibition_at_20_uM>
0.0

> <r_inhibition_at_50_uM>
35.39

> <r_IC50>

> <f_inhibition_at_20_uM>

> <f_inhibition_at_50_uM>
12.72043

> <f_avg_IC50>

> <f_avg_pIC50>

> <ASSAYED>
True

> <Hybrid2>
-8.949402

> <docked_fragment>
x0678

> <Mpro-_dock>
-5.134552

> <site>
active-noncovalent

$$$$
NAU-LAT-64f4b287-7
  -OEChem-07042000473D

 33 35  0     0  0  0  0  0  0999 V2000
    4.9648    1.5266   21.2995 C   0  0  0  0  0  0  0  0  0  0  0  0
    5.0898    1.0526   19.9885 C   0  0  0  0  0  0  0  0  0  0  0  0
   12.8947    0.4538   24.1680 C   0  0  0  0  0  0  0  0  0  0  0  0
   11.4310   -0.9309   22.8349 C   0  0  0  0  0  0  0  0  0  0  0  0
    6.0674    1.5695   22.1505 C   0  0  0  0  0  0  0  0  0  0  0  0
   13.8547   -0.5581   24.1651 C   0  0  0  0  0  0  0  0  0  0  0  0
   12.3910   -1.9428   22.8319 C   0  0  0  0  0  0  0  0  0  0  0  0
    6.8305    0.0893   18.3014 C   0  0  0  0  0  0  0  0  0  0  0  0
    8.1752   -0.1607   18.4496 C   0  0  0  0  0  0  0  0  0  0  0  0
    6.3496    0.6158   19.5328 C   0  0  0  0  0  0  0  0  0  0  0  0
   11.6828    0.2674   23.5029 C   0  0  0  0  0  0  0  0  0  0  0  0
    7.4368    0.6702   20.4077 C   0  0  0  0  0  0  0  0  0  0  0  0
    7.3267    1.1415   21.7207 C   0  0  0  0  0  0  0  0  0  0  0  0
   13.6029   -1.7564   23.4971 C   0  0  0  0  0  0  0  0  0  0  0  0
    9.7771    1.3717   22.2572 C   0  0  0  0  0  0  0  0  0  0  0  0
   10.6460    1.3601   23.5050 C   0  0  0  0  0  0  0  0  0  0  0  0
    8.5317    0.1926   19.7234 N   0  0  0  0  0  0  0  0  0  0  0  0
    8.4220    1.1895   22.5824 N   0  0  0  0  0  0  0  0  0  0  0  0
   10.2457    1.5222   21.1334 O   0  0  0  0  0  0  0  0  0  0  0  0
   14.5258   -2.7272   23.4919 F   0  0  0  0  0  0  0  0  0  0  0  0
    3.9955    1.8647   21.6564 H   0  0  0  0  0  0  0  0  0  0  0  0
    4.2217    1.0254   19.3362 H   0  0  0  0  0  0  0  0  0  0  0  0
   13.0997    1.3837   24.6919 H   0  0  0  0  0  0  0  0  0  0  0  0
   10.4897   -1.0850   22.3137 H   0  0  0  0  0  0  0  0  0  0  0  0
    5.9355    1.9437   23.1638 H   0  0  0  0  0  0  0  0  0  0  0  0
   14.7984   -0.4129   24.6822 H   0  0  0  0  0  0  0  0  0  0  0  0
   12.1951   -2.8760   22.3123 H   0  0  0  0  0  0  0  0  0  0  0  0
    6.2553   -0.0874   17.4027 H   0  0  0  0  0  0  0  0  0  0  0  0
    8.9093   -0.5580   17.7627 H   0  0  0  0  0  0  0  0  0  0  0  0
    9.9977    1.2509   24.3838 H   0  0  0  0  0  0  0  0  0  0  0  0
   11.1406    2.3351   23.5998 H   0  0  0  0  0  0  0  0  0  0  0  0
    9.4637    0.1147   20.1065 H   0  0  0  0  0  0  0  0  0  0  0  0
    8.2118    1.0776   23.5813 H   0  0  0  0  0  0  0  0  0  0  0  0
  1  2  1  0  0  0  0
  1  5  2  0  0  0  0
  2 10  2  0  0  0  0
  3  6  2  0  0  0  0
  3 11  1  0  0  0  0
  4  7  1  0  0  0  0
  4 11  2  0  0  0  0
  5 13  1  0  0  0  0
  6 14  1  0  0  0  0
  7 14  2  0  0  0  0
  8  9  2  0  0  0  0
  8 10  1  0  0  0  0
  9 17  1  0  0  0  0
 10 12  1  0  0  0  0
 11 16  1  0  0  0  0
 12 13  2  0  0  0  0
 12 17  1  0  0  0  0
 13 18  1  0  0  0  0
 14 20  1  0  0  0  0
 15 16  1  0  0  0  0
 15 18  1  0  0  0  0
 15 19  2  0  0  0  0
  1 21  1  0  0  0  0
  2 22  1  0  0  0  0
  3 23  1  0  0  0  0
  4 24  1  0  0  0  0
  5 25  1  0  0  0  0
  6 26  1  0  0  0  0
  7 27  1  0  0  0  0
  8 28  1  0  0  0  0
  9 29  1  0  0  0  0
 16 30  1  0  0  0  0
 16 31  1  0  0  0  0
 17 32  1  0  0  0  0
 18 33  1  0  0  0  0
M  END
> <series>
3-aminopyridine-like

> <r_inhibition_at_20_uM>

> <r_inhibition_at_50_uM>
0.0

> <r_IC50>

> <f_inhibition_at_20_uM>
-2.4308565

> <f_inhibition_at_50_uM>
-33.890285

> <f_avg_IC50>

> <f_avg_pIC50>

> <ASSAYED>
True

> <Hybrid2>
-8.936343

> <docked_fragment>
x0678

> <Mpro-_dock>
-7.725381

> <site>
active-noncovalent

$$$$
BAR-COM-4e090d3a-68
  -OEChem-07042000473D

 36 38  0     1  0  0  0  0  0999 V2000
    9.0198   -3.7444   22.8656 C   0  0  0  0  0  0  0  0  0  0  0  0
    4.5183   -0.3224   18.0371 C   0  0  0  0  0  0  0  0  0  0  0  0
   10.3313   -3.3591   23.1430 C   0  0  0  0  0  0  0  0  0  0  0  0
    4.8922    0.2503   19.2477 C   0  0  0  0  0  0  0  0  0  0  0  0
    8.1180   -2.8200   22.3384 C   0  0  0  0  0  0  0  0  0  0  0  0
   13.2972   -2.1134   22.6958 C   0  0  0  0  0  0  0  0  0  0  0  0
    9.8393   -1.1249   22.3662 C   0  0  0  0  0  0  0  0  0  0  0  0
    5.4410   -0.3144   17.0035 C   0  0  0  0  0  0  0  0  0  0  0  0
   14.2661   -1.3294   23.3502 C   0  0  0  0  0  0  0  0  0  0  0  0
    7.0088    0.7628   18.2919 C   0  0  0  0  0  0  0  0  0  0  0  0
   10.7411   -2.0494   22.8934 C   0  0  0  0  0  0  0  0  0  0  0  0
    6.1595    0.8055   19.3858 C   0  0  0  0  0  0  0  0  0  0  0  0
    8.5278   -1.5102   22.0887 C   0  0  0  0  0  0  0  0  0  0  0  0
   12.0976   -1.6510   23.1794 C   0  0  0  0  0  0  0  0  0  0  0  0
    7.8496    0.7626   21.2440 C   0  0  0  0  0  0  0  0  0  0  0  0
    6.5960    1.4347   20.6885 C   0  0  1  0  0  0  0  0  0  0  0  0
    6.6811    0.2153   17.1001 N   0  0  0  0  0  0  0  0  0  0  0  0
   13.7287   -0.4366   24.1857 N   0  0  0  0  0  0  0  0  0  0  0  0
   12.4089   -0.6567   24.0595 N   0  0  0  0  0  0  0  0  0  0  0  0
    7.6248   -0.5858   21.5631 N   0  0  0  0  0  0  0  0  0  0  0  0
    8.8979    1.3858   21.3853 O   0  0  0  0  0  0  0  0  0  0  0  0
    6.8546    2.8132   20.4660 O   0  0  0  0  0  0  0  0  0  0  0  0
    8.7008   -4.7644   23.0601 H   0  0  0  0  0  0  0  0  0  0  0  0
    3.5358   -0.7613   17.9068 H   0  0  0  0  0  0  0  0  0  0  0  0
   11.0227   -4.0915   23.5537 H   0  0  0  0  0  0  0  0  0  0  0  0
    4.1904    0.2593   20.0773 H   0  0  0  0  0  0  0  0  0  0  0  0
    7.0981   -3.1315   22.1272 H   0  0  0  0  0  0  0  0  0  0  0  0
   13.4520   -2.9032   21.9747 H   0  0  0  0  0  0  0  0  0  0  0  0
   10.1546   -0.1020   22.1691 H   0  0  0  0  0  0  0  0  0  0  0  0
    5.1976   -0.7484   16.0393 H   0  0  0  0  0  0  0  0  0  0  0  0
   15.3414   -1.3731   23.2531 H   0  0  0  0  0  0  0  0  0  0  0  0
    8.0099    1.1800   18.3401 H   0  0  0  0  0  0  0  0  0  0  0  0
    5.7940    1.3740   21.4342 H   0  0  0  0  0  0  0  0  0  0  0  0
   11.7756   -0.0869   24.6070 H   0  0  0  0  0  0  0  0  0  0  0  0
    6.6755   -0.9315   21.3824 H   0  0  0  0  0  0  0  0  0  0  0  0
    7.5598    2.8632   19.8001 H   0  0  0  0  0  0  0  0  0  0  0  0
  1  3  1  0  0  0  0
  1  5  2  0  0  0  0
  2  4  2  0  0  0  0
  2  8  1  0  0  0  0
  3 11  2  0  0  0  0
  4 12  1  0  0  0  0
  5 13  1  0  0  0  0
  6  9  1  0  0  0  0
  6 14  2  0  0  0  0
  7 11  1  0  0  0  0
  7 13  2  0  0  0  0
  8 17  2  0  0  0  0
  9 18  2  0  0  0  0
 10 12  2  0  0  0  0
 10 17  1  0  0  0  0
 11 14  1  0  0  0  0
 12 16  1  0  0  0  0
 13 20  1  0  0  0  0
 14 19  1  0  0  0  0
 15 16  1  0  0  0  0
 15 20  1  0  0  0  0
 15 21  2  0  0  0  0
 16 22  1  0  0  0  0
 18 19  1  0  0  0  0
  1 23  1  0  0  0  0
  2 24  1  0  0  0  0
  3 25  1  0  0  0  0
  4 26  1  0  0  0  0
  5 27  1  0  0  0  0
  6 28  1  0  0  0  0
  7 29  1  0  0  0  0
  8 30  1  0  0  0  0
  9 31  1  0  0  0  0
 10 32  1  0  0  0  0
 16 33  1  0  0  0  0
 19 34  1  0  0  0  0
 20 35  1  0  0  0  0
 22 36  1  0  0  0  0
M  END
> <series>
3-aminopyridine-like

> <r_inhibition_at_20_uM>
0.0

> <r_inhibition_at_50_uM>
0.0

> <r_IC50>

> <f_inhibition_at_20_uM>

> <f_inhibition_at_50_uM>
10.38241

> <f_avg_IC50>

> <f_avg_pIC50>

> <ASSAYED>
True

> <Hybrid2>
-8.930996

> <docked_fragment>
x0678

> <Mpro-_dock>
-6.988405

> <site>
active-noncovalent

$$$$
LON-WEI-d1c9908a-2
  -OEChem-07042000473D

 56 59  0     1  0  0  0  0  0999 V2000
    6.1536    0.7996   19.6367 C   0  0  0  0  0  0  0  0  0  0  0  0
   12.5546   -2.3326   23.3690 C   0  0  0  0  0  0  0  0  0  0  0  0
   13.6706   -0.3476   22.5619 C   0  0  0  0  0  0  0  0  0  0  0  0
    6.9383    0.2268   20.6314 C   0  0  0  0  0  0  0  0  0  0  0  0
   11.3323   -1.8239   22.9300 C   0  0  0  0  0  0  0  0  0  0  0  0
   12.4483    0.1611   22.1229 C   0  0  0  0  0  0  0  0  0  0  0  0
    6.7697   -5.0011   22.8453 C   0  0  0  0  0  0  0  0  0  0  0  0
    6.5812   -3.1681   24.4079 C   0  0  0  0  0  0  0  0  0  0  0  0
    6.0153   -5.8061   23.6986 C   0  0  0  0  0  0  0  0  0  0  0  0
    5.8268   -3.9732   25.2612 C   0  0  0  0  0  0  0  0  0  0  0  0
    6.6124    0.7347   18.3309 C   0  0  0  0  0  0  0  0  0  0  0  0
    8.5104   -0.3970   18.9594 C   0  0  0  0  0  0  0  0  0  0  0  0
   13.7238   -1.5945   23.1850 C   0  0  0  0  0  0  0  0  0  0  0  0
    8.1407   -0.3849   20.2947 C   0  0  0  0  0  0  0  0  0  0  0  0
    7.0527   -3.6820   23.1999 C   0  0  0  0  0  0  0  0  0  0  0  0
   11.2791   -0.5771   22.3070 C   0  0  0  0  0  0  0  0  0  0  0  0
    5.5438   -5.2922   24.9066 C   0  0  0  0  0  0  0  0  0  0  0  0
   10.7835    3.4120   22.6371 C   0  0  0  0  0  0  0  0  0  0  0  0
   10.4268    2.1453   22.8719 C   0  0  0  0  0  0  0  0  0  0  0  0
    9.7624    1.3401   21.8053 C   0  0  0  0  0  0  0  0  0  0  0  0
    8.1911   -1.5376   22.5279 C   0  0  0  0  0  0  0  0  0  0  0  0
   15.1836   -2.4390   25.1340 C   0  0  0  0  0  0  0  0  0  0  0  0
   15.8868   -1.2565   24.5446 C   0  0  0  0  0  0  0  0  0  0  0  0
   15.0297   -2.1378   23.6540 C   0  0  0  0  0  0  0  0  0  0  0  0
   15.7302   -3.0415   22.6777 C   0  0  0  0  0  0  0  0  0  0  0  0
    9.0165   -1.0177   21.3535 C   0  0  2  0  0  0  0  0  0  0  0  0
    7.7747    0.1490   17.9653 N   0  0  0  0  0  0  0  0  0  0  0  0
    7.8177   -2.8651   22.3339 N   0  0  0  0  0  0  0  0  0  0  0  0
   10.0062   -0.0472   21.8499 N   0  0  0  0  0  0  0  0  0  0  0  0
    9.0702    1.9195   20.9678 O   0  0  0  0  0  0  0  0  0  0  0  0
    7.9143   -0.8231   23.4877 O   0  0  0  0  0  0  0  0  0  0  0  0
    4.6128   -6.2858   25.9596 Cl  0  0  0  0  0  0  0  0  0  0  0  0
    5.2126    1.2816   19.8759 H   0  0  0  0  0  0  0  0  0  0  0  0
   12.5856   -3.3051   23.8533 H   0  0  0  0  0  0  0  0  0  0  0  0
   14.5764    0.2347   22.4141 H   0  0  0  0  0  0  0  0  0  0  0  0
    6.6052    0.2615   21.6652 H   0  0  0  0  0  0  0  0  0  0  0  0
   10.4275   -2.4078   23.0788 H   0  0  0  0  0  0  0  0  0  0  0  0
   12.4192    1.1339   21.6387 H   0  0  0  0  0  0  0  0  0  0  0  0
    7.1323   -5.4118   21.9065 H   0  0  0  0  0  0  0  0  0  0  0  0
    6.7959   -2.1417   24.6940 H   0  0  0  0  0  0  0  0  0  0  0  0
    5.8022   -6.8320   23.4096 H   0  0  0  0  0  0  0  0  0  0  0  0
    5.4659   -3.5598   26.1995 H   0  0  0  0  0  0  0  0  0  0  0  0
    6.0372    1.1669   17.5187 H   0  0  0  0  0  0  0  0  0  0  0  0
    9.4378   -0.8599   18.6365 H   0  0  0  0  0  0  0  0  0  0  0  0
   11.2872    3.9857   23.4080 H   0  0  0  0  0  0  0  0  0  0  0  0
   10.5841    3.9087   21.6939 H   0  0  0  0  0  0  0  0  0  0  0  0
   10.6595    1.6812   23.8233 H   0  0  0  0  0  0  0  0  0  0  0  0
   15.7882   -3.2886   25.4295 H   0  0  0  0  0  0  0  0  0  0  0  0
   14.3459   -2.2480   25.7949 H   0  0  0  0  0  0  0  0  0  0  0  0
   15.5217   -0.2713   24.8112 H   0  0  0  0  0  0  0  0  0  0  0  0
   16.9646   -1.3103   24.4425 H   0  0  0  0  0  0  0  0  0  0  0  0
   16.6811   -3.4024   23.0889 H   0  0  0  0  0  0  0  0  0  0  0  0
   15.9464   -2.5145   21.7401 H   0  0  0  0  0  0  0  0  0  0  0  0
   15.1123   -3.9159   22.4387 H   0  0  0  0  0  0  0  0  0  0  0  0
    9.5785   -1.8570   20.9257 H   0  0  0  0  0  0  0  0  0  0  0  0
    8.1318   -3.2984   21.4681 H   0  0  0  0  0  0  0  0  0  0  0  0
  1  4  2  0  0  0  0
  1 11  1  0  0  0  0
  2  5  2  0  0  0  0
  2 13  1  0  0  0  0
  3  6  1  0  0  0  0
  3 13  2  0  0  0  0
  4 14  1  0  0  0  0
  5 16  1  0  0  0  0
  6 16  2  0  0  0  0
  7  9  2  0  0  0  0
  7 15  1  0  0  0  0
  8 10  1  0  0  0  0
  8 15  2  0  0  0  0
  9 17  1  0  0  0  0
 10 17  2  0  0  0  0
 11 27  2  0  0  0  0
 12 14  2  0  0  0  0
 12 27  1  0  0  0  0
 13 24  1  0  0  0  0
 14 26  1  0  0  0  0
 15 28  1  0  0  0  0
 16 29  1  0  0  0  0
 17 32  1  0  0  0  0
 18 19  2  0  0  0  0
 19 20  1  0  0  0  0
 20 29  1  0  0  0  0
 20 30  2  0  0  0  0
 21 26  1  0  0  0  0
 21 28  1  0  0  0  0
 21 31  2  0  0  0  0
 22 23  1  0  0  0  0
 22 24  1  0  0  0  0
 23 24  1  0  0  0  0
 24 25  1  0  0  0  0
 26 29  1  0  0  0  0
  1 33  1  0  0  0  0
  2 34  1  0  0  0  0
  3 35  1  0  0  0  0
  4 36  1  0  0  0  0
  5 37  1  0  0  0  0
  6 38  1  0  0  0  0
  7 39  1  0  0  0  0
  8 40  1  0  0  0  0
  9 41  1  0  0  0  0
 10 42  1  0  0  0  0
 11 43  1  0  0  0  0
 12 44  1  0  0  0  0
 18 45  1  0  0  0  0
 18 46  1  0  0  0  0
 19 47  1  0  0  0  0
 22 48  1  0  0  0  0
 22 49  1  0  0  0  0
 23 50  1  0  0  0  0
 23 51  1  0  0  0  0
 25 52  1  0  0  0  0
 25 53  1  0  0  0  0
 25 54  1  0  0  0  0
 26 55  1  0  0  0  0
 28 56  1  0  0  0  0
M  END
> <series>
3-aminopyridine-like

> <r_inhibition_at_20_uM>
0.0

> <r_inhibition_at_50_uM>
-0.6699999999999999

> <r_IC50>

> <f_inhibition_at_20_uM>

> <f_inhibition_at_50_uM>
-9.807806

> <f_avg_IC50>

> <f_avg_pIC50>

> <ASSAYED>
True

> <Hybrid2>
-8.878492

> <docked_fragment>
x0678

> <Mpro-_dock>
-5.441741

> <site>
active-noncovalent

$$$$
BAR-COM-4e090d3a-53
  -OEChem-07042000473D

 39 41  0     1  0  0  0  0  0999 V2000
   13.4030   -1.2089   22.7417 C   0  0  0  0  0  0  0  0  0  0  0  0
   12.1165   -1.4780   22.2748 C   0  0  0  0  0  0  0  0  0  0  0  0
   13.7273    0.0699   23.1949 C   0  0  0  0  0  0  0  0  0  0  0  0
   11.4785    0.8105   22.7139 C   0  0  0  0  0  0  0  0  0  0  0  0
    6.3217    1.2260   17.5364 C   0  0  0  0  0  0  0  0  0  0  0  0
    5.7976    1.6404   18.7410 C   0  0  0  0  0  0  0  0  0  0  0  0
    7.6099   -0.3166   18.6274 C   0  0  0  0  0  0  0  0  0  0  0  0
   11.1543   -0.4683   22.2609 C   0  0  0  0  0  0  0  0  0  0  0  0
   12.7650    1.0796   23.1809 C   0  0  0  0  0  0  0  0  0  0  0  0
    7.0864    0.0982   19.8322 C   0  0  0  0  0  0  0  0  0  0  0  0
   12.0421    5.3276   23.8297 C   0  0  0  0  0  0  0  0  0  0  0  0
    8.7748    0.1402   21.6991 C   0  0  0  0  0  0  0  0  0  0  0  0
   11.2294    4.0231   23.8548 C   0  0  0  0  0  0  0  0  0  0  0  0
   12.3873    3.4226   23.0273 C   0  0  1  0  0  0  0  0  0  0  0  0
    6.3893   -0.5787   22.1499 C   0  0  0  0  0  0  0  0  0  0  0  0
    7.5308   -0.5521   21.1301 C   0  0  1  0  0  0  0  0  0  0  0  0
    7.2372    0.2400   17.4579 N   0  0  0  0  0  0  0  0  0  0  0  0
    6.1707    1.0840   19.9105 N   0  0  0  0  0  0  0  0  0  0  0  0
   13.0319    4.7269   23.1191 N   0  0  0  0  0  0  0  0  0  0  0  0
    9.8674   -0.7380   21.7939 N   0  0  0  0  0  0  0  0  0  0  0  0
   11.9069    6.4525   24.2524 O   0  0  0  0  0  0  0  0  0  0  0  0
    8.7639    1.3271   22.0126 O   0  0  0  0  0  0  0  0  0  0  0  0
   13.0814    2.3276   23.6229 O   0  0  0  0  0  0  0  0  0  0  0  0
   14.1517   -1.9955   22.7533 H   0  0  0  0  0  0  0  0  0  0  0  0
   11.8753   -2.4780   21.9236 H   0  0  0  0  0  0  0  0  0  0  0  0
   14.7310    0.2726   23.5579 H   0  0  0  0  0  0  0  0  0  0  0  0
   10.7314    1.6010   22.7054 H   0  0  0  0  0  0  0  0  0  0  0  0
    6.0216    1.6737   16.5971 H   0  0  0  0  0  0  0  0  0  0  0  0
    5.0619    2.4327   18.8032 H   0  0  0  0  0  0  0  0  0  0  0  0
    8.3461   -1.1087   18.5566 H   0  0  0  0  0  0  0  0  0  0  0  0
   11.0960    3.6083   24.8573 H   0  0  0  0  0  0  0  0  0  0  0  0
   10.2683    4.0843   23.3384 H   0  0  0  0  0  0  0  0  0  0  0  0
   12.1105    3.1883   21.9931 H   0  0  0  0  0  0  0  0  0  0  0  0
    6.0633    0.4398   22.3888 H   0  0  0  0  0  0  0  0  0  0  0  0
    5.5138   -1.1220   21.7768 H   0  0  0  0  0  0  0  0  0  0  0  0
    6.7077   -1.0594   23.0816 H   0  0  0  0  0  0  0  0  0  0  0  0
    7.8076   -1.5979   20.9364 H   0  0  0  0  0  0  0  0  0  0  0  0
   13.9030    5.0992   22.7666 H   0  0  0  0  0  0  0  0  0  0  0  0
    9.6934   -1.6979   21.4752 H   0  0  0  0  0  0  0  0  0  0  0  0
  1  2  2  0  0  0  0
  1  3  1  0  0  0  0
  2  8  1  0  0  0  0
  3  9  2  0  0  0  0
  4  8  2  0  0  0  0
  4  9  1  0  0  0  0
  5  6  2  0  0  0  0
  5 17  1  0  0  0  0
  6 18  1  0  0  0  0
  7 10  1  0  0  0  0
  7 17  2  0  0  0  0
  8 20  1  0  0  0  0
  9 23  1  0  0  0  0
 10 16  1  0  0  0  0
 10 18  2  0  0  0  0
 11 13  1  0  0  0  0
 11 19  1  0  0  0  0
 11 21  2  0  0  0  0
 12 16  1  0  0  0  0
 12 20  1  0  0  0  0
 12 22  2  0  0  0  0
 13 14  1  0  0  0  0
 14 19  1  0  0  0  0
 14 23  1  0  0  0  0
 15 16  1  0  0  0  0
  1 24  1  0  0  0  0
  2 25  1  0  0  0  0
  3 26  1  0  0  0  0
  4 27  1  0  0  0  0
  5 28  1  0  0  0  0
  6 29  1  0  0  0  0
  7 30  1  0  0  0  0
 13 31  1  0  0  0  0
 13 32  1  0  0  0  0
 14 33  1  0  0  0  0
 15 34  1  0  0  0  0
 15 35  1  0  0  0  0
 15 36  1  0  0  0  0
 16 37  1  0  0  0  0
 19 38  1  0  0  0  0
 20 39  1  0  0  0  0
M  END
> <series>
3-aminopyridine-like

> <r_inhibition_at_20_uM>
0.0

> <r_inhibition_at_50_uM>
0.0

> <r_IC50>

> <f_inhibition_at_20_uM>

> <f_inhibition_at_50_uM>
16.96057

> <f_avg_IC50>

> <f_avg_pIC50>

> <ASSAYED>
True

> <Hybrid2>
-8.859419

> <docked_fragment>
x0678

> <Mpro-_dock>
-3.038799

> <site>
active-noncovalent

$$$$
LON-WEI-d1c9908a-9
  -OEChem-07042000473D

 61 63  0     1  0  0  0  0  0999 V2000
    6.4942    0.2301   18.0202 C   0  0  0  0  0  0  0  0  0  0  0  0
    8.7859   -2.4333   25.5756 C   0  0  0  0  0  0  0  0  0  0  0  0
    8.7327   -1.1174   25.1296 C   0  0  0  0  0  0  0  0  0  0  0  0
   11.4858    4.7817   23.6209 C   0  0  0  0  0  0  0  0  0  0  0  0
    9.2250    4.6798   24.4667 C   0  0  0  0  0  0  0  0  0  0  0  0
    7.1553    0.1765   19.2472 C   0  0  0  0  0  0  0  0  0  0  0  0
   11.4701    3.4026   23.4126 C   0  0  0  0  0  0  0  0  0  0  0  0
    9.2092    3.3006   24.2583 C   0  0  0  0  0  0  0  0  0  0  0  0
    5.2834    0.9139   17.9096 C   0  0  0  0  0  0  0  0  0  0  0  0
    9.1589   -3.4112   24.6676 C   0  0  0  0  0  0  0  0  0  0  0  0
    9.4110   -1.8737   22.9793 C   0  0  0  0  0  0  0  0  0  0  0  0
   10.3632    5.4203   24.1480 C   0  0  0  0  0  0  0  0  0  0  0  0
    9.0496   -0.8238   23.8080 C   0  0  0  0  0  0  0  0  0  0  0  0
    5.3948    1.4902   20.2531 C   0  0  0  0  0  0  0  0  0  0  0  0
   10.3318    2.6621   23.7312 C   0  0  0  0  0  0  0  0  0  0  0  0
    6.6056    0.8065   20.3637 C   0  0  0  0  0  0  0  0  0  0  0  0
    4.7337    1.5439   19.0260 C   0  0  0  0  0  0  0  0  0  0  0  0
   13.8706    0.6161   24.1892 C   0  0  0  0  0  0  0  0  0  0  0  0
   12.6022    0.9215   24.4807 C   0  0  0  0  0  0  0  0  0  0  0  0
   11.4936    0.4576   23.5958 C   0  0  0  0  0  0  0  0  0  0  0  0
    8.6660    0.6442   21.8040 C   0  0  0  0  0  0  0  0  0  0  0  0
    4.7855    2.1731   21.4345 C   0  0  0  0  0  0  0  0  0  0  0  0
   10.6231    7.6658   23.0363 C   0  0  0  0  0  0  0  0  0  0  0  0
   11.5123    7.3043   25.3632 C   0  0  0  0  0  0  0  0  0  0  0  0
    9.0656    7.4990   24.9671 C   0  0  0  0  0  0  0  0  0  0  0  0
    9.0019    0.5977   23.2925 C   0  0  2  0  0  0  0  0  0  0  0  0
   10.3807    6.9406   24.3777 C   0  0  0  0  0  0  0  0  0  0  0  0
    9.4740   -3.1644   23.3763 N   0  0  0  0  0  0  0  0  0  0  0  0
    7.2919    0.7403   21.5995 N   0  0  0  0  0  0  0  0  0  0  0  0
   10.3157    1.2827   23.5227 N   0  0  0  0  0  0  0  0  0  0  0  0
   11.6201   -0.6097   22.9950 O   0  0  0  0  0  0  0  0  0  0  0  0
    9.5406    0.5878   20.9436 O   0  0  0  0  0  0  0  0  0  0  0  0
    3.5697    2.1982   18.9088 F   0  0  0  0  0  0  0  0  0  0  0  0
    6.9221   -0.2604   17.1507 H   0  0  0  0  0  0  0  0  0  0  0  0
    8.5433   -2.6855   26.6016 H   0  0  0  0  0  0  0  0  0  0  0  0
    8.4437   -0.3281   25.8182 H   0  0  0  0  0  0  0  0  0  0  0  0
   12.3778    5.3506   23.3718 H   0  0  0  0  0  0  0  0  0  0  0  0
    8.3462    5.1690   24.8785 H   0  0  0  0  0  0  0  0  0  0  0  0
    8.0983   -0.3595   19.3207 H   0  0  0  0  0  0  0  0  0  0  0  0
   12.3504    2.9155   23.0009 H   0  0  0  0  0  0  0  0  0  0  0  0
    8.3172    2.7330   24.5112 H   0  0  0  0  0  0  0  0  0  0  0  0
    4.7686    0.9558   16.9543 H   0  0  0  0  0  0  0  0  0  0  0  0
    9.2153   -4.4528   24.9662 H   0  0  0  0  0  0  0  0  0  0  0  0
    9.6691   -1.7057   21.9382 H   0  0  0  0  0  0  0  0  0  0  0  0
   14.6709    0.9359   24.8482 H   0  0  0  0  0  0  0  0  0  0  0  0
   14.1466    0.0564   23.3023 H   0  0  0  0  0  0  0  0  0  0  0  0
   12.3680    1.4689   25.3863 H   0  0  0  0  0  0  0  0  0  0  0  0
    5.1393    3.2083   21.4979 H   0  0  0  0  0  0  0  0  0  0  0  0
    3.6910    2.1805   21.3659 H   0  0  0  0  0  0  0  0  0  0  0  0
    5.0442    1.6566   22.3667 H   0  0  0  0  0  0  0  0  0  0  0  0
   10.6401    8.7535   23.1723 H   0  0  0  0  0  0  0  0  0  0  0  0
   11.5789    7.3855   22.5801 H   0  0  0  0  0  0  0  0  0  0  0  0
    9.8325    7.4323   22.3132 H   0  0  0  0  0  0  0  0  0  0  0  0
   11.5628    8.3813   25.5574 H   0  0  0  0  0  0  0  0  0  0  0  0
   11.3671    6.8110   26.3314 H   0  0  0  0  0  0  0  0  0  0  0  0
   12.4892    6.9941   24.9740 H   0  0  0  0  0  0  0  0  0  0  0  0
    9.1271    8.5843   25.1123 H   0  0  0  0  0  0  0  0  0  0  0  0
    8.2138    7.3112   24.3030 H   0  0  0  0  0  0  0  0  0  0  0  0
    8.8411    7.0558   25.9444 H   0  0  0  0  0  0  0  0  0  0  0  0
    8.2424    1.1713   23.8379 H   0  0  0  0  0  0  0  0  0  0  0  0
    6.7136    0.7661   22.4367 H   0  0  0  0  0  0  0  0  0  0  0  0
  1  6  2  0  0  0  0
  1  9  1  0  0  0  0
  2  3  2  0  0  0  0
  2 10  1  0  0  0  0
  3 13  1  0  0  0  0
  4  7  2  0  0  0  0
  4 12  1  0  0  0  0
  5  8  1  0  0  0  0
  5 12  2  0  0  0  0
  6 16  1  0  0  0  0
  7 15  1  0  0  0  0
  8 15  2  0  0  0  0
  9 17  2  0  0  0  0
 10 28  2  0  0  0  0
 11 13  2  0  0  0  0
 11 28  1  0  0  0  0
 12 27  1  0  0  0  0
 13 26  1  0  0  0  0
 14 16  2  0  0  0  0
 14 17  1  0  0  0  0
 14 22  1  0  0  0  0
 15 30  1  0  0  0  0
 16 29  1  0  0  0  0
 17 33  1  0  0  0  0
 18 19  2  0  0  0  0
 19 20  1  0  0  0  0
 20 30  1  0  0  0  0
 20 31  2  0  0  0  0
 21 26  1  0  0  0  0
 21 29  1  0  0  0  0
 21 32  2  0  0  0  0
 23 27  1  0  0  0  0
 24 27  1  0  0  0  0
 25 27  1  0  0  0  0
 26 30  1  0  0  0  0
  1 34  1  0  0  0  0
  2 35  1  0  0  0  0
  3 36  1  0  0  0  0
  4 37  1  0  0  0  0
  5 38  1  0  0  0  0
  6 39  1  0  0  0  0
  7 40  1  0  0  0  0
  8 41  1  0  0  0  0
  9 42  1  0  0  0  0
 10 43  1  0  0  0  0
 11 44  1  0  0  0  0
 18 45  1  0  0  0  0
 18 46  1  0  0  0  0
 19 47  1  0  0  0  0
 22 48  1  0  0  0  0
 22 49  1  0  0  0  0
 22 50  1  0  0  0  0
 23 51  1  0  0  0  0
 23 52  1  0  0  0  0
 23 53  1  0  0  0  0
 24 54  1  0  0  0  0
 24 55  1  0  0  0  0
 24 56  1  0  0  0  0
 25 57  1  0  0  0  0
 25 58  1  0  0  0  0
 25 59  1  0  0  0  0
 26 60  1  0  0  0  0
 29 61  1  0  0  0  0
M  END
> <series>
3-aminopyridine-like

> <r_inhibition_at_20_uM>
0.0

> <r_inhibition_at_50_uM>
0.0

> <r_IC50>

> <f_inhibition_at_20_uM>

> <f_inhibition_at_50_uM>
-14.820689999999999

> <f_avg_IC50>

> <f_avg_pIC50>

> <ASSAYED>
True

> <Hybrid2>
-8.858815

> <docked_fragment>
x0434

> <Mpro-_dock>
-8.273301

> <site>
active-noncovalent

$$$$
LON-WEI-b8d98729-11
  -OEChem-07042000473D

 57 59  0     1  0  0  0  0  0999 V2000
    5.9219    0.6759   19.6651 C   0  0  0  0  0  0  0  0  0  0  0  0
    6.7317    0.1000   20.6376 C   0  0  0  0  0  0  0  0  0  0  0  0
   12.2050    0.3532   22.2386 C   0  0  0  0  0  0  0  0  0  0  0  0
   13.4558   -0.0891   22.6692 C   0  0  0  0  0  0  0  0  0  0  0  0
    6.9283   -5.2594   22.5079 C   0  0  0  0  0  0  0  0  0  0  0  0
    6.5743   -3.5521   24.1803 C   0  0  0  0  0  0  0  0  0  0  0  0
    6.2240   -6.1733   23.2916 C   0  0  0  0  0  0  0  0  0  0  0  0
    5.8699   -4.4661   24.9641 C   0  0  0  0  0  0  0  0  0  0  0  0
   11.2326   -1.7595   22.8927 C   0  0  0  0  0  0  0  0  0  0  0  0
    6.4056    0.7315   18.3679 C   0  0  0  0  0  0  0  0  0  0  0  0
    8.3742   -0.2925   18.9630 C   0  0  0  0  0  0  0  0  0  0  0  0
    7.9828   -0.3958   20.2881 C   0  0  0  0  0  0  0  0  0  0  0  0
   12.4834   -2.2019   23.3233 C   0  0  0  0  0  0  0  0  0  0  0  0
    7.1035   -3.9488   22.9522 C   0  0  0  0  0  0  0  0  0  0  0  0
   11.0934   -0.4819   22.3504 C   0  0  0  0  0  0  0  0  0  0  0  0
   13.5950   -1.3667   23.2115 C   0  0  0  0  0  0  0  0  0  0  0  0
    5.6948   -5.7766   24.5197 C   0  0  0  0  0  0  0  0  0  0  0  0
   10.2878    3.4282   22.9248 C   0  0  0  0  0  0  0  0  0  0  0  0
   10.0256    2.1255   23.0703 C   0  0  0  0  0  0  0  0  0  0  0  0
    9.4425    1.3441   21.9404 C   0  0  0  0  0  0  0  0  0  0  0  0
    8.0849   -1.6851   22.4434 C   0  0  0  0  0  0  0  0  0  0  0  0
   12.6043   -3.5753   23.8993 C   0  0  0  0  0  0  0  0  0  0  0  0
   15.2989   -1.5623   25.0056 C   0  0  0  0  0  0  0  0  0  0  0  0
   15.7543   -2.4920   22.7304 C   0  0  0  0  0  0  0  0  0  0  0  0
    8.8871   -1.0287   21.3227 C   0  0  2  0  0  0  0  0  0  0  0  0
    7.6152    0.2604   17.9905 N   0  0  0  0  0  0  0  0  0  0  0  0
    7.8177   -3.0215   22.1568 N   0  0  0  0  0  0  0  0  0  0  0  0
    9.7912   -0.0208   21.9012 N   0  0  0  0  0  0  0  0  0  0  0  0
   14.8689   -1.7976   23.6426 N   0  0  0  0  0  0  0  0  0  0  0  0
    8.7217    1.9232   21.1272 O   0  0  0  0  0  0  0  0  0  0  0  0
    7.7384   -1.0581   23.4409 O   0  0  0  0  0  0  0  0  0  0  0  0
    4.8256   -6.9045   25.4867 Cl  0  0  0  0  0  0  0  0  0  0  0  0
    4.9428    1.0688   19.9146 H   0  0  0  0  0  0  0  0  0  0  0  0
    6.3800    0.0417   21.6641 H   0  0  0  0  0  0  0  0  0  0  0  0
   12.1085    1.3510   21.8181 H   0  0  0  0  0  0  0  0  0  0  0  0
   14.3149    0.5708   22.5785 H   0  0  0  0  0  0  0  0  0  0  0  0
    7.3368   -5.5792   21.5527 H   0  0  0  0  0  0  0  0  0  0  0  0
    6.7048   -2.5334   24.5362 H   0  0  0  0  0  0  0  0  0  0  0  0
    6.0950   -7.1911   22.9330 H   0  0  0  0  0  0  0  0  0  0  0  0
    5.4630   -4.1434   25.9189 H   0  0  0  0  0  0  0  0  0  0  0  0
   10.3663   -2.4115   22.9808 H   0  0  0  0  0  0  0  0  0  0  0  0
    5.8123    1.1713   17.5730 H   0  0  0  0  0  0  0  0  0  0  0  0
    9.3396   -0.6619   18.6310 H   0  0  0  0  0  0  0  0  0  0  0  0
   10.7333    3.9865   23.7414 H   0  0  0  0  0  0  0  0  0  0  0  0
   10.0665    3.9691   22.0113 H   0  0  0  0  0  0  0  0  0  0  0  0
   10.2776    1.6189   23.9947 H   0  0  0  0  0  0  0  0  0  0  0  0
   12.8246   -4.3004   23.1077 H   0  0  0  0  0  0  0  0  0  0  0  0
   13.4039   -3.6211   24.6486 H   0  0  0  0  0  0  0  0  0  0  0  0
   11.6772   -3.8764   24.4021 H   0  0  0  0  0  0  0  0  0  0  0  0
   16.3116   -1.9680   25.1464 H   0  0  0  0  0  0  0  0  0  0  0  0
   15.3061   -0.4808   25.2062 H   0  0  0  0  0  0  0  0  0  0  0  0
   14.6052   -2.0593   25.6997 H   0  0  0  0  0  0  0  0  0  0  0  0
   16.6915   -2.7435   23.2484 H   0  0  0  0  0  0  0  0  0  0  0  0
   15.2695   -3.4154   22.3807 H   0  0  0  0  0  0  0  0  0  0  0  0
   15.9741   -1.8444   21.8688 H   0  0  0  0  0  0  0  0  0  0  0  0
    9.5188   -1.7933   20.8540 H   0  0  0  0  0  0  0  0  0  0  0  0
    8.1782   -3.3722   21.2719 H   0  0  0  0  0  0  0  0  0  0  0  0
  1  2  2  0  0  0  0
  1 10  1  0  0  0  0
  2 12  1  0  0  0  0
  3  4  2  0  0  0  0
  3 15  1  0  0  0  0
  4 16  1  0  0  0  0
  5  7  2  0  0  0  0
  5 14  1  0  0  0  0
  6  8  1  0  0  0  0
  6 14  2  0  0  0  0
  7 17  1  0  0  0  0
  8 17  2  0  0  0  0
  9 13  1  0  0  0  0
  9 15  2  0  0  0  0
 10 26  2  0  0  0  0
 11 12  2  0  0  0  0
 11 26  1  0  0  0  0
 12 25  1  0  0  0  0
 13 16  2  0  0  0  0
 13 22  1  0  0  0  0
 14 27  1  0  0  0  0
 15 28  1  0  0  0  0
 16 29  1  0  0  0  0
 17 32  1  0  0  0  0
 18 19  2  0  0  0  0
 19 20  1  0  0  0  0
 20 28  1  0  0  0  0
 20 30  2  0  0  0  0
 21 25  1  0  0  0  0
 21 27  1  0  0  0  0
 21 31  2  0  0  0  0
 23 29  1  0  0  0  0
 24 29  1  0  0  0  0
 25 28  1  0  0  0  0
  1 33  1  0  0  0  0
  2 34  1  0  0  0  0
  3 35  1  0  0  0  0
  4 36  1  0  0  0  0
  5 37  1  0  0  0  0
  6 38  1  0  0  0  0
  7 39  1  0  0  0  0
  8 40  1  0  0  0  0
  9 41  1  0  0  0  0
 10 42  1  0  0  0  0
 11 43  1  0  0  0  0
 18 44  1  0  0  0  0
 18 45  1  0  0  0  0
 19 46  1  0  0  0  0
 22 47  1  0  0  0  0
 22 48  1  0  0  0  0
 22 49  1  0  0  0  0
 23 50  1  0  0  0  0
 23 51  1  0  0  0  0
 23 52  1  0  0  0  0
 24 53  1  0  0  0  0
 24 54  1  0  0  0  0
 24 55  1  0  0  0  0
 25 56  1  0  0  0  0
 27 57  1  0  0  0  0
M  END
> <series>
3-aminopyridine-like

> <r_inhibition_at_20_uM>
0.0

> <r_inhibition_at_50_uM>

> <r_IC50>

> <f_inhibition_at_20_uM>
4.2636449999999995

> <f_inhibition_at_50_uM>
12.105545

> <f_avg_IC50>

> <f_avg_pIC50>

> <ASSAYED>
True

> <Hybrid2>
-8.809813

> <docked_fragment>
x0678

> <Mpro-_dock>
-5.408917

> <site>
active-noncovalent

$$$$
LON-WEI-adc59df6-35
  -OEChem-07042000473D

 61 63  0     1  0  0  0  0  0999 V2000
    5.8910    0.8928   19.4398 C   0  0  0  0  0  0  0  0  0  0  0  0
    6.4367    0.1059   20.4481 C   0  0  0  0  0  0  0  0  0  0  0  0
   12.4270   -0.9698   21.7400 C   0  0  0  0  0  0  0  0  0  0  0  0
   11.9573   -1.5142   24.0466 C   0  0  0  0  0  0  0  0  0  0  0  0
   11.0624   -0.8094   21.5000 C   0  0  0  0  0  0  0  0  0  0  0  0
   10.5926   -1.3536   23.8065 C   0  0  0  0  0  0  0  0  0  0  0  0
    6.4341    0.7876   18.1695 C   0  0  0  0  0  0  0  0  0  0  0  0
    7.9649   -0.7817   18.8566 C   0  0  0  0  0  0  0  0  0  0  0  0
   12.8745   -1.3223   23.0134 C   0  0  0  0  0  0  0  0  0  0  0  0
    7.4937   -0.7499   20.1592 C   0  0  0  0  0  0  0  0  0  0  0  0
   10.1452   -1.0012   22.5332 C   0  0  0  0  0  0  0  0  0  0  0  0
    8.4717    1.9296   24.6345 C   0  0  0  0  0  0  0  0  0  0  0  0
    8.8063    1.2936   23.5073 C   0  0  0  0  0  0  0  0  0  0  0  0
    7.9839    0.1492   23.0159 C   0  0  0  0  0  0  0  0  0  0  0  0
    7.0796   -2.5481   21.8653 C   0  0  0  0  0  0  0  0  0  0  0  0
    6.3225   -4.8983   26.0990 C   0  0  0  0  0  0  0  0  0  0  0  0
    5.0988   -4.0018   25.8904 C   0  0  0  0  0  0  0  0  0  0  0  0
    7.3851   -4.3943   25.1261 C   0  0  0  0  0  0  0  0  0  0  0  0
    5.4871   -3.0050   24.8016 C   0  0  0  0  0  0  0  0  0  0  0  0
    6.5738   -3.7322   24.0190 C   0  0  0  0  0  0  0  0  0  0  0  0
   15.1179   -0.1770   22.9789 C   0  0  0  0  0  0  0  0  0  0  0  0
   14.9396   -2.6118   22.3656 C   0  0  0  0  0  0  0  0  0  0  0  0
   14.7157   -1.8910   24.7345 C   0  0  0  0  0  0  0  0  0  0  0  0
    8.1080   -1.6182   21.2325 C   0  0  2  0  0  0  0  0  0  0  0  0
   14.3336   -1.4940   23.2699 C   0  0  0  0  0  0  0  0  0  0  0  0
    7.4606   -0.0322   17.8507 N   0  0  0  0  0  0  0  0  0  0  0  0
    7.3694   -2.8370   23.1983 N   0  0  0  0  0  0  0  0  0  0  0  0
    8.7104   -0.8323   22.2812 N   0  0  0  0  0  0  0  0  0  0  0  0
    6.7788    0.1323   23.2680 O   0  0  0  0  0  0  0  0  0  0  0  0
    6.1283   -3.0134   21.2408 O   0  0  0  0  0  0  0  0  0  0  0  0
    5.0665    1.5669   19.6420 H   0  0  0  0  0  0  0  0  0  0  0  0
    6.0322    0.1660   21.4548 H   0  0  0  0  0  0  0  0  0  0  0  0
   13.1345   -0.8206   20.9286 H   0  0  0  0  0  0  0  0  0  0  0  0
   12.2971   -1.7896   25.0415 H   0  0  0  0  0  0  0  0  0  0  0  0
   10.7250   -0.5341   20.5038 H   0  0  0  0  0  0  0  0  0  0  0  0
    9.8864   -1.5067   24.6187 H   0  0  0  0  0  0  0  0  0  0  0  0
    6.0440    1.3804   17.3487 H   0  0  0  0  0  0  0  0  0  0  0  0
    8.7877   -1.4300   18.5714 H   0  0  0  0  0  0  0  0  0  0  0  0
    9.0594    2.7757   24.9750 H   0  0  0  0  0  0  0  0  0  0  0  0
    7.6256    1.6310   25.2434 H   0  0  0  0  0  0  0  0  0  0  0  0
    9.6505    1.6347   22.9193 H   0  0  0  0  0  0  0  0  0  0  0  0
    6.6811   -4.8647   27.1327 H   0  0  0  0  0  0  0  0  0  0  0  0
    6.0625   -5.9393   25.8744 H   0  0  0  0  0  0  0  0  0  0  0  0
    4.2452   -4.6081   25.5659 H   0  0  0  0  0  0  0  0  0  0  0  0
    4.8063   -3.4905   26.8131 H   0  0  0  0  0  0  0  0  0  0  0  0
    8.0277   -3.6628   25.6326 H   0  0  0  0  0  0  0  0  0  0  0  0
    8.0200   -5.2049   24.7555 H   0  0  0  0  0  0  0  0  0  0  0  0
    4.6331   -2.7250   24.1772 H   0  0  0  0  0  0  0  0  0  0  0  0
    5.8818   -2.0929   25.2670 H   0  0  0  0  0  0  0  0  0  0  0  0
    6.1361   -4.4807   23.3553 H   0  0  0  0  0  0  0  0  0  0  0  0
   16.1945   -0.2762   23.1599 H   0  0  0  0  0  0  0  0  0  0  0  0
   14.9965    0.1406   21.9375 H   0  0  0  0  0  0  0  0  0  0  0  0
   14.7459    0.6345   23.6157 H   0  0  0  0  0  0  0  0  0  0  0  0
   16.0115   -2.7409   22.5512 H   0  0  0  0  0  0  0  0  0  0  0  0
   14.4672   -3.5882   22.5250 H   0  0  0  0  0  0  0  0  0  0  0  0
   14.8179   -2.3511   21.3076 H   0  0  0  0  0  0  0  0  0  0  0  0
   15.7976   -2.0051   24.8729 H   0  0  0  0  0  0  0  0  0  0  0  0
   14.3794   -1.1276   25.4459 H   0  0  0  0  0  0  0  0  0  0  0  0
   14.2532   -2.8450   25.0131 H   0  0  0  0  0  0  0  0  0  0  0  0
    8.9243   -2.2217   20.8175 H   0  0  0  0  0  0  0  0  0  0  0  0
    8.1870   -2.3971   23.6234 H   0  0  0  0  0  0  0  0  0  0  0  0
  1  2  2  0  0  0  0
  1  7  1  0  0  0  0
  2 10  1  0  0  0  0
  3  5  2  0  0  0  0
  3  9  1  0  0  0  0
  4  6  1  0  0  0  0
  4  9  2  0  0  0  0
  5 11  1  0  0  0  0
  6 11  2  0  0  0  0
  7 26  2  0  0  0  0
  8 10  2  0  0  0  0
  8 26  1  0  0  0  0
  9 25  1  0  0  0  0
 10 24  1  0  0  0  0
 11 28  1  0  0  0  0
 12 13  2  0  0  0  0
 13 14  1  0  0  0  0
 14 28  1  0  0  0  0
 14 29  2  0  0  0  0
 15 24  1  0  0  0  0
 15 27  1  0  0  0  0
 15 30  2  0  0  0  0
 16 17  1  0  0  0  0
 16 18  1  0  0  0  0
 17 19  1  0  0  0  0
 18 20  1  0  0  0  0
 19 20  1  0  0  0  0
 20 27  1  0  0  0  0
 21 25  1  0  0  0  0
 22 25  1  0  0  0  0
 23 25  1  0  0  0  0
 24 28  1  0  0  0  0
  1 31  1  0  0  0  0
  2 32  1  0  0  0  0
  3 33  1  0  0  0  0
  4 34  1  0  0  0  0
  5 35  1  0  0  0  0
  6 36  1  0  0  0  0
  7 37  1  0  0  0  0
  8 38  1  0  0  0  0
 12 39  1  0  0  0  0
 12 40  1  0  0  0  0
 13 41  1  0  0  0  0
 16 42  1  0  0  0  0
 16 43  1  0  0  0  0
 17 44  1  0  0  0  0
 17 45  1  0  0  0  0
 18 46  1  0  0  0  0
 18 47  1  0  0  0  0
 19 48  1  0  0  0  0
 19 49  1  0  0  0  0
 20 50  1  0  0  0  0
 21 51  1  0  0  0  0
 21 52  1  0  0  0  0
 21 53  1  0  0  0  0
 22 54  1  0  0  0  0
 22 55  1  0  0  0  0
 22 56  1  0  0  0  0
 23 57  1  0  0  0  0
 23 58  1  0  0  0  0
 23 59  1  0  0  0  0
 24 60  1  0  0  0  0
 27 61  1  0  0  0  0
M  END
> <series>
3-aminopyridine-like

> <r_inhibition_at_20_uM>
0.0

> <r_inhibition_at_50_uM>
1.6767437114194266

> <r_IC50>

> <f_inhibition_at_20_uM>
-10.46988

> <f_inhibition_at_50_uM>
-12.77713

> <f_avg_IC50>

> <f_avg_pIC50>

> <ASSAYED>
True

> <Hybrid2>
-8.801700

> <docked_fragment>
x0678

> <Mpro-_dock>
-5.360233

> <site>
active-noncovalent

$$$$
JAG-UCB-a3ef7265-22
  -OEChem-07042000473D

 35 36  0     0  0  0  0  0  0999 V2000
   11.7969   -1.4122   21.6909 C   0  0  0  0  0  0  0  0  0  0  0  0
   10.6368   -0.7072   23.6894 C   0  0  0  0  0  0  0  0  0  0  0  0
    6.5662    1.0687   18.0988 C   0  0  0  0  0  0  0  0  0  0  0  0
    7.9361   -0.4558   18.6730 C   0  0  0  0  0  0  0  0  0  0  0  0
   13.0180   -1.2717   22.3501 C   0  0  0  0  0  0  0  0  0  0  0  0
   11.8580   -0.5667   24.3487 C   0  0  0  0  0  0  0  0  0  0  0  0
   10.6062   -1.1299   22.3605 C   0  0  0  0  0  0  0  0  0  0  0  0
   13.0486   -0.8489   23.6790 C   0  0  0  0  0  0  0  0  0  0  0  0
    6.1831    0.6876   19.3630 C   0  0  0  0  0  0  0  0  0  0  0  0
    8.1955   -0.5553   21.9129 C   0  0  0  0  0  0  0  0  0  0  0  0
   14.2689   -1.5833   21.5928 C   0  0  0  0  0  0  0  0  0  0  0  0
   11.8426   -0.1111   25.7726 C   0  0  0  0  0  0  0  0  0  0  0  0
    5.0903    1.1499   20.2357 C   0  0  0  0  0  0  0  0  0  0  0  0
    7.1010   -1.0307   20.9754 C   0  0  0  0  0  0  0  0  0  0  0  0
    7.6579    0.3530   17.6748 N   0  0  0  0  0  0  0  0  0  0  0  0
    7.0696   -0.2900   19.7175 N   0  0  0  0  0  0  0  0  0  0  0  0
    9.3845   -1.2719   21.7016 N   0  0  0  0  0  0  0  0  0  0  0  0
    8.0151    0.3423   22.7293 O   0  0  0  0  0  0  0  0  0  0  0  0
   14.5645   -0.6744   24.4980 Cl  0  0  0  0  0  0  0  0  0  0  0  0
   11.7736   -1.7417   20.6543 H   0  0  0  0  0  0  0  0  0  0  0  0
    9.7085   -0.4876   24.2124 H   0  0  0  0  0  0  0  0  0  0  0  0
    6.1132    1.8219   17.4702 H   0  0  0  0  0  0  0  0  0  0  0  0
    8.7432   -1.1752   18.6964 H   0  0  0  0  0  0  0  0  0  0  0  0
   14.6407   -0.6837   21.0900 H   0  0  0  0  0  0  0  0  0  0  0  0
   15.0516   -1.9605   22.2615 H   0  0  0  0  0  0  0  0  0  0  0  0
   14.0907   -2.3588   20.8383 H   0  0  0  0  0  0  0  0  0  0  0  0
   11.7826   -0.9738   26.4451 H   0  0  0  0  0  0  0  0  0  0  0  0
   12.7468    0.4600   26.0141 H   0  0  0  0  0  0  0  0  0  0  0  0
   10.9868    0.5461   25.9675 H   0  0  0  0  0  0  0  0  0  0  0  0
    4.1700    0.5641   20.0696 H   0  0  0  0  0  0  0  0  0  0  0  0
    5.3483    1.0671   21.3065 H   0  0  0  0  0  0  0  0  0  0  0  0
    4.8428    2.2131   20.0662 H   0  0  0  0  0  0  0  0  0  0  0  0
    7.2483   -2.0911   20.7404 H   0  0  0  0  0  0  0  0  0  0  0  0
    6.1234   -0.9199   21.4584 H   0  0  0  0  0  0  0  0  0  0  0  0
    9.3441   -1.9888   20.9680 H   0  0  0  0  0  0  0  0  0  0  0  0
  1  5  1  0  0  0  0
  1  7  2  0  0  0  0
  2  6  2  0  0  0  0
  2  7  1  0  0  0  0
  3  9  2  0  0  0  0
  3 15  1  0  0  0  0
  4 15  2  0  0  0  0
  4 16  1  0  0  0  0
  5  8  2  0  0  0  0
  5 11  1  0  0  0  0
  6  8  1  0  0  0  0
  6 12  1  0  0  0  0
  7 17  1  0  0  0  0
  8 19  1  0  0  0  0
  9 13  1  0  0  0  0
  9 16  1  0  0  0  0
 10 14  1  0  0  0  0
 10 17  1  0  0  0  0
 10 18  2  0  0  0  0
 14 16  1  0  0  0  0
  1 20  1  0  0  0  0
  2 21  1  0  0  0  0
  3 22  1  0  0  0  0
  4 23  1  0  0  0  0
 11 24  1  0  0  0  0
 11 25  1  0  0  0  0
 11 26  1  0  0  0  0
 12 27  1  0  0  0  0
 12 28  1  0  0  0  0
 12 29  1  0  0  0  0
 13 30  1  0  0  0  0
 13 31  1  0  0  0  0
 13 32  1  0  0  0  0
 14 33  1  0  0  0  0
 14 34  1  0  0  0  0
 17 35  1  0  0  0  0
M  END
> <series>
3-aminopyridine-like

> <r_inhibition_at_20_uM>

> <r_inhibition_at_50_uM>
25.78

> <r_IC50>

> <f_inhibition_at_20_uM>
2.903274

> <f_inhibition_at_50_uM>
4.8820024

> <f_avg_IC50>

> <f_avg_pIC50>

> <ASSAYED>
True

> <Hybrid2>
-8.780240

> <docked_fragment>
x0678

> <Mpro-_dock>
-6.052525

> <site>
active-noncovalent

$$$$
BAR-COM-4e090d3a-39
  -OEChem-07042000473D

 36 38  0     1  0  0  0  0  0999 V2000
   13.2144   -2.1014   22.3498 C   0  0  0  0  0  0  0  0  0  0  0  0
   11.9316   -2.2845   21.8338 C   0  0  0  0  0  0  0  0  0  0  0  0
   13.5480   -0.9028   22.9805 C   0  0  0  0  0  0  0  0  0  0  0  0
   11.3159   -0.0703   22.5790 C   0  0  0  0  0  0  0  0  0  0  0  0
    5.9858    0.6511   19.7123 C   0  0  0  0  0  0  0  0  0  0  0  0
    7.3748   -0.5992   18.3109 C   0  0  0  0  0  0  0  0  0  0  0  0
    6.0588    1.0559   17.4767 C   0  0  0  0  0  0  0  0  0  0  0  0
    6.9147   -0.3621   19.5901 C   0  0  0  0  0  0  0  0  0  0  0  0
   10.9823   -1.2690   21.9484 C   0  0  0  0  0  0  0  0  0  0  0  0
   12.5988    0.1127   23.0951 C   0  0  0  0  0  0  0  0  0  0  0  0
   12.5433    4.4397   23.6085 C   0  0  0  0  0  0  0  0  0  0  0  0
    8.6183   -0.5553   21.4511 C   0  0  0  0  0  0  0  0  0  0  0  0
   11.5627    3.3370   23.1779 C   0  0  0  0  0  0  0  0  0  0  0  0
   12.8210    2.4750   22.9339 C   0  0  1  0  0  0  0  0  0  0  0  0
    7.3960   -1.1569   20.7756 C   0  0  0  0  0  0  0  0  0  0  0  0
    5.5340    1.3831   18.6729 N   0  0  0  0  0  0  0  0  0  0  0  0
    6.9668    0.0931   17.2271 N   0  0  0  0  0  0  0  0  0  0  0  0
   13.6026    3.6174   23.3917 N   0  0  0  0  0  0  0  0  0  0  0  0
    9.6990   -1.4526   21.4323 N   0  0  0  0  0  0  0  0  0  0  0  0
   12.4620    5.5834   23.9929 O   0  0  0  0  0  0  0  0  0  0  0  0
    8.6111    0.5715   21.9364 O   0  0  0  0  0  0  0  0  0  0  0  0
   12.9243    1.2825   23.7103 O   0  0  0  0  0  0  0  0  0  0  0  0
   13.9530   -2.8927   22.2613 H   0  0  0  0  0  0  0  0  0  0  0  0
   11.6829   -3.2225   21.3439 H   0  0  0  0  0  0  0  0  0  0  0  0
   14.5488   -0.7670   23.3808 H   0  0  0  0  0  0  0  0  0  0  0  0
   10.5789    0.7244   22.6712 H   0  0  0  0  0  0  0  0  0  0  0  0
    5.5626    0.9159   20.6762 H   0  0  0  0  0  0  0  0  0  0  0  0
    8.1066   -1.3751   18.1089 H   0  0  0  0  0  0  0  0  0  0  0  0
    5.7124    1.6276   16.6245 H   0  0  0  0  0  0  0  0  0  0  0  0
   10.9024    2.9987   23.9807 H   0  0  0  0  0  0  0  0  0  0  0  0
   10.9811    3.5788   22.2847 H   0  0  0  0  0  0  0  0  0  0  0  0
   13.0085    2.2643   21.8749 H   0  0  0  0  0  0  0  0  0  0  0  0
    6.5899   -1.2389   21.5159 H   0  0  0  0  0  0  0  0  0  0  0  0
    7.6356   -2.1799   20.4588 H   0  0  0  0  0  0  0  0  0  0  0  0
   14.5935    3.7844   23.4997 H   0  0  0  0  0  0  0  0  0  0  0  0
    9.5222   -2.3580   20.9818 H   0  0  0  0  0  0  0  0  0  0  0  0
  1  2  2  0  0  0  0
  1  3  1  0  0  0  0
  2  9  1  0  0  0  0
  3 10  2  0  0  0  0
  4  9  2  0  0  0  0
  4 10  1  0  0  0  0
  5  8  1  0  0  0  0
  5 16  2  0  0  0  0
  6  8  2  0  0  0  0
  6 17  1  0  0  0  0
  7 16  1  0  0  0  0
  7 17  2  0  0  0  0
  8 15  1  0  0  0  0
  9 19  1  0  0  0  0
 10 22  1  0  0  0  0
 11 13  1  0  0  0  0
 11 18  1  0  0  0  0
 11 20  2  0  0  0  0
 12 15  1  0  0  0  0
 12 19  1  0  0  0  0
 12 21  2  0  0  0  0
 13 14  1  0  0  0  0
 14 18  1  0  0  0  0
 14 22  1  0  0  0  0
  1 23  1  0  0  0  0
  2 24  1  0  0  0  0
  3 25  1  0  0  0  0
  4 26  1  0  0  0  0
  5 27  1  0  0  0  0
  6 28  1  0  0  0  0
  7 29  1  0  0  0  0
 13 30  1  0  0  0  0
 13 31  1  0  0  0  0
 14 32  1  0  0  0  0
 15 33  1  0  0  0  0
 15 34  1  0  0  0  0
 18 35  1  0  0  0  0
 19 36  1  0  0  0  0
M  END
> <series>
3-aminopyridine-like

> <r_inhibition_at_20_uM>
-2.075

> <r_inhibition_at_50_uM>
8.105

> <r_IC50>

> <f_inhibition_at_20_uM>
7.8632979999999995

> <f_inhibition_at_50_uM>
22.773735000000002

> <f_avg_IC50>

> <f_avg_pIC50>

> <ASSAYED>
True

> <Hybrid2>
-8.729742

> <docked_fragment>
x0678

> <Mpro-_dock>
-6.80773

> <site>
active-noncovalent

$$$$
JAG-UCB-a3ef7265-10
  -OEChem-07042000473D

 27 28  0     0  0  0  0  0  0999 V2000
   12.9546    0.9218   22.6921 C   0  0  0  0  0  0  0  0  0  0  0  0
   11.9664    0.2601   21.9633 C   0  0  0  0  0  0  0  0  0  0  0  0
   13.9047    0.1893   23.4037 C   0  0  0  0  0  0  0  0  0  0  0  0
   11.9282   -1.1341   21.9462 C   0  0  0  0  0  0  0  0  0  0  0  0
   12.8782   -1.8667   22.6579 C   0  0  0  0  0  0  0  0  0  0  0  0
   13.8665   -1.2049   23.3866 C   0  0  0  0  0  0  0  0  0  0  0  0
    5.9880    1.0037   19.1821 C   0  0  0  0  0  0  0  0  0  0  0  0
    8.0245   -0.1825   19.2942 C   0  0  0  0  0  0  0  0  0  0  0  0
    9.5478   -1.0777   21.0895 C   0  0  0  0  0  0  0  0  0  0  0  0
    4.7321    1.7292   19.4579 C   0  0  0  0  0  0  0  0  0  0  0  0
   10.8697   -1.8374   21.1654 C   0  0  0  0  0  0  0  0  0  0  0  0
    6.4640    0.7375   17.9844 N   0  0  0  0  0  0  0  0  0  0  0  0
    7.6579    0.0408   18.0502 N   0  0  0  0  0  0  0  0  0  0  0  0
    9.1787   -0.8521   19.7658 N   0  0  0  0  0  0  0  0  0  0  0  0
    8.9393   -0.7370   22.0988 O   0  0  0  0  0  0  0  0  0  0  0  0
   12.8361   -3.2077   22.6393 F   0  0  0  0  0  0  0  0  0  0  0  0
    6.9511    0.4331   20.4817 S   0  0  0  0  0  0  0  0  0  0  0  0
   15.0418   -2.1035   24.2674 Cl  0  0  0  0  0  0  0  0  0  0  0  0
   12.9842    2.0075   22.7053 H   0  0  0  0  0  0  0  0  0  0  0  0
   11.2306    0.8399   21.4121 H   0  0  0  0  0  0  0  0  0  0  0  0
   14.6687    0.7190   23.9671 H   0  0  0  0  0  0  0  0  0  0  0  0
    3.8790    1.0346   19.5250 H   0  0  0  0  0  0  0  0  0  0  0  0
    4.7801    2.2939   20.4045 H   0  0  0  0  0  0  0  0  0  0  0  0
    4.5012    2.4693   18.6728 H   0  0  0  0  0  0  0  0  0  0  0  0
   11.2145   -2.0248   20.1351 H   0  0  0  0  0  0  0  0  0  0  0  0
   10.6694   -2.8298   21.6017 H   0  0  0  0  0  0  0  0  0  0  0  0
    9.8128   -1.2105   19.0547 H   0  0  0  0  0  0  0  0  0  0  0  0
  1  2  2  0  0  0  0
  1  3  1  0  0  0  0
  2  4  1  0  0  0  0
  3  6  2  0  0  0  0
  4  5  2  0  0  0  0
  4 11  1  0  0  0  0
  5  6  1  0  0  0  0
  5 16  1  0  0  0  0
  6 18  1  0  0  0  0
  7 10  1  0  0  0  0
  7 12  2  0  0  0  0
  7 17  1  0  0  0  0
  8 13  2  0  0  0  0
  8 14  1  0  0  0  0
  8 17  1  0  0  0  0
  9 11  1  0  0  0  0
  9 14  1  0  0  0  0
  9 15  2  0  0  0  0
 12 13  1  0  0  0  0
  1 19  1  0  0  0  0
  2 20  1  0  0  0  0
  3 21  1  0  0  0  0
 10 22  1  0  0  0  0
 10 23  1  0  0  0  0
 10 24  1  0  0  0  0
 11 25  1  0  0  0  0
 11 26  1  0  0  0  0
 14 27  1  0  0  0  0
M  END
> <series>
3-aminopyridine-like

> <r_inhibition_at_20_uM>

> <r_inhibition_at_50_uM>
0.0

> <r_IC50>

> <f_inhibition_at_20_uM>
1.02107925

> <f_inhibition_at_50_uM>
-14.821653500000002

> <f_avg_IC50>

> <f_avg_pIC50>

> <ASSAYED>
True

> <Hybrid2>
-8.728844

> <docked_fragment>
x0678

> <Mpro-_dock>
-5.931528

> <site>
active-noncovalent

$$$$
DAR-DIA-23aa0b97-15
  -OEChem-07042000473D

 26 27  0     0  0  0  0  0  0999 V2000
   13.9682   -1.7930   22.4750 C   0  0  0  0  0  0  0  0  0  0  0  0
   12.7326   -1.3591   22.0079 C   0  0  0  0  0  0  0  0  0  0  0  0
    6.5938    0.8665   20.2155 C   0  0  0  0  0  0  0  0  0  0  0  0
   14.2104   -1.7152   23.8370 C   0  0  0  0  0  0  0  0  0  0  0  0
   12.1298   -0.8314   24.2472 C   0  0  0  0  0  0  0  0  0  0  0  0
    8.2666    0.0102   18.7578 C   0  0  0  0  0  0  0  0  0  0  0  0
    6.2643    0.6986   17.8662 C   0  0  0  0  0  0  0  0  0  0  0  0
   11.7902   -0.8676   22.9043 C   0  0  0  0  0  0  0  0  0  0  0  0
    7.8670    0.3346   20.0442 C   0  0  0  0  0  0  0  0  0  0  0  0
    5.7708    1.0551   19.1108 C   0  0  0  0  0  0  0  0  0  0  0  0
   10.0311   -0.3896   21.1448 C   0  0  0  0  0  0  0  0  0  0  0  0
   13.3198   -1.2439   24.7384 N   0  0  0  0  0  0  0  0  0  0  0  0
    7.4953    0.1790   17.6604 N   0  0  0  0  0  0  0  0  0  0  0  0
   10.5443   -0.4256   22.4660 N   0  0  0  0  0  0  0  0  0  0  0  0
    8.7275    0.1321   21.1489 N   0  0  0  0  0  0  0  0  0  0  0  0
   10.6432   -0.7618   20.1488 O   0  0  0  0  0  0  0  0  0  0  0  0
    4.1950    1.7092   19.2828 Cl  0  0  0  0  0  0  0  0  0  0  0  0
   14.7180   -2.1798   21.7944 H   0  0  0  0  0  0  0  0  0  0  0  0
   12.5146   -1.4083   20.9443 H   0  0  0  0  0  0  0  0  0  0  0  0
    6.2463    1.1347   21.2108 H   0  0  0  0  0  0  0  0  0  0  0  0
   15.1590   -2.0402   24.2514 H   0  0  0  0  0  0  0  0  0  0  0  0
   11.4361   -0.4586   24.9950 H   0  0  0  0  0  0  0  0  0  0  0  0
    9.2488   -0.4089   18.5605 H   0  0  0  0  0  0  0  0  0  0  0  0
    5.6705    0.8197   16.9650 H   0  0  0  0  0  0  0  0  0  0  0  0
    9.9128   -0.0795   23.1976 H   0  0  0  0  0  0  0  0  0  0  0  0
    8.3495    0.3998   22.0541 H   0  0  0  0  0  0  0  0  0  0  0  0
  1  2  2  0  0  0  0
  1  4  1  0  0  0  0
  2  8  1  0  0  0  0
  3  9  2  0  0  0  0
  3 10  1  0  0  0  0
  4 12  2  0  0  0  0
  5  8  2  0  0  0  0
  5 12  1  0  0  0  0
  6  9  1  0  0  0  0
  6 13  2  0  0  0  0
  7 10  2  0  0  0  0
  7 13  1  0  0  0  0
  8 14  1  0  0  0  0
  9 15  1  0  0  0  0
 10 17  1  0  0  0  0
 11 14  1  0  0  0  0
 11 15  1  0  0  0  0
 11 16  2  0  0  0  0
  1 18  1  0  0  0  0
  2 19  1  0  0  0  0
  3 20  1  0  0  0  0
  4 21  1  0  0  0  0
  5 22  1  0  0  0  0
  6 23  1  0  0  0  0
  7 24  1  0  0  0  0
 14 25  1  0  0  0  0
 15 26  1  0  0  0  0
M  END
> <series>
3-aminopyridine-like

> <r_inhibition_at_20_uM>
0.0

> <r_inhibition_at_50_uM>
-0.07499999999999996

> <r_IC50>

> <f_inhibition_at_20_uM>

> <f_inhibition_at_50_uM>
16.82187

> <f_avg_IC50>

> <f_avg_pIC50>

> <ASSAYED>
True

> <Hybrid2>
-8.696875

> <docked_fragment>
x0678

> <Mpro-_dock>
-5.036589

> <site>
active-noncovalent

$$$$
ANN-UNI-26382800-6
  -OEChem-07042000473D

 33 34  0     0  0  0  0  0  0999 V2000
    5.1242    1.8644   21.4222 C   0  0  0  0  0  0  0  0  0  0  0  0
    6.0883    0.8608   17.9697 C   0  0  0  0  0  0  0  0  0  0  0  0
   14.5225   -1.6333   22.0682 C   0  0  0  0  0  0  0  0  0  0  0  0
    5.3399    1.3448   19.0426 C   0  0  0  0  0  0  0  0  0  0  0  0
    7.3882    0.3996   18.1778 C   0  0  0  0  0  0  0  0  0  0  0  0
   13.4992   -1.4080   21.1476 C   0  0  0  0  0  0  0  0  0  0  0  0
   14.3335   -1.3146   23.4130 C   0  0  0  0  0  0  0  0  0  0  0  0
    7.1913    0.9067   20.5318 C   0  0  0  0  0  0  0  0  0  0  0  0
   12.0978   -0.5452   22.9165 C   0  0  0  0  0  0  0  0  0  0  0  0
    5.8914    1.3679   20.3236 C   0  0  0  0  0  0  0  0  0  0  0  0
    7.9397    0.4226   19.4588 C   0  0  0  0  0  0  0  0  0  0  0  0
   12.2869   -0.8639   21.5717 C   0  0  0  0  0  0  0  0  0  0  0  0
   13.1212   -0.7706   23.8371 C   0  0  0  0  0  0  0  0  0  0  0  0
    9.9732   -0.1003   20.8767 C   0  0  0  0  0  0  0  0  0  0  0  0
   11.6731    0.0935   25.5141 C   0  0  0  0  0  0  0  0  0  0  0  0
    4.5011    2.2677   22.3143 N   0  0  0  0  0  0  0  0  0  0  0  0
    9.2394   -0.0399   19.6668 N   0  0  0  0  0  0  0  0  0  0  0  0
   11.2490   -0.6358   20.6375 N   0  0  0  0  0  0  0  0  0  0  0  0
    9.5499    0.2637   21.9692 O   0  0  0  0  0  0  0  0  0  0  0  0
   12.9367   -0.4594   25.1494 O   0  0  0  0  0  0  0  0  0  0  0  0
    5.6586    0.8420   16.9723 H   0  0  0  0  0  0  0  0  0  0  0  0
   15.4660   -2.0578   21.7378 H   0  0  0  0  0  0  0  0  0  0  0  0
    4.3284    1.7014   18.8641 H   0  0  0  0  0  0  0  0  0  0  0  0
    7.9621    0.0244   17.3342 H   0  0  0  0  0  0  0  0  0  0  0  0
   13.6579   -1.6597   20.1021 H   0  0  0  0  0  0  0  0  0  0  0  0
   15.1345   -1.4933   24.1250 H   0  0  0  0  0  0  0  0  0  0  0  0
    7.6249    0.9237   21.5298 H   0  0  0  0  0  0  0  0  0  0  0  0
   11.1541   -0.1212   23.2521 H   0  0  0  0  0  0  0  0  0  0  0  0
   11.6591    0.2955   26.5879 H   0  0  0  0  0  0  0  0  0  0  0  0
   10.8780   -0.6099   25.2544 H   0  0  0  0  0  0  0  0  0  0  0  0
   11.5230    1.0278   24.9679 H   0  0  0  0  0  0  0  0  0  0  0  0
    9.7284   -0.3817   18.8327 H   0  0  0  0  0  0  0  0  0  0  0  0
   11.4596   -0.8929   19.6765 H   0  0  0  0  0  0  0  0  0  0  0  0
  1 10  1  0  0  0  0
  1 16  3  0  0  0  0
  2  4  1  0  0  0  0
  2  5  2  0  0  0  0
  3  6  1  0  0  0  0
  3  7  2  0  0  0  0
  4 10  2  0  0  0  0
  5 11  1  0  0  0  0
  6 12  2  0  0  0  0
  7 13  1  0  0  0  0
  8 10  1  0  0  0  0
  8 11  2  0  0  0  0
  9 12  1  0  0  0  0
  9 13  2  0  0  0  0
 11 17  1  0  0  0  0
 12 18  1  0  0  0  0
 13 20  1  0  0  0  0
 14 17  1  0  0  0  0
 14 18  1  0  0  0  0
 14 19  2  0  0  0  0
 15 20  1  0  0  0  0
  2 21  1  0  0  0  0
  3 22  1  0  0  0  0
  4 23  1  0  0  0  0
  5 24  1  0  0  0  0
  6 25  1  0  0  0  0
  7 26  1  0  0  0  0
  8 27  1  0  0  0  0
  9 28  1  0  0  0  0
 15 29  1  0  0  0  0
 15 30  1  0  0  0  0
 15 31  1  0  0  0  0
 17 32  1  0  0  0  0
 18 33  1  0  0  0  0
M  END
> <series>
3-aminopyridine-like

> <r_inhibition_at_20_uM>
0.0

> <r_inhibition_at_50_uM>
2.485

> <r_IC50>

> <f_inhibition_at_20_uM>
5.1061144999999994

> <f_inhibition_at_50_uM>
9.794888

> <f_avg_IC50>

> <f_avg_pIC50>

> <ASSAYED>
True

> <Hybrid2>
-8.695646

> <docked_fragment>
x0678

> <Mpro-_dock>
-6.088238

> <site>
active-noncovalent

$$$$
LON-WEI-b8d98729-14
  -OEChem-07042000473D

 57 59  0     1  0  0  0  0  0999 V2000
    6.2482    0.9071   19.7842 C   0  0  0  0  0  0  0  0  0  0  0  0
    7.0164    0.2957   20.7689 C   0  0  0  0  0  0  0  0  0  0  0  0
   12.5383   -0.0711   22.1682 C   0  0  0  0  0  0  0  0  0  0  0  0
   13.7380   -0.6452   22.5886 C   0  0  0  0  0  0  0  0  0  0  0  0
    6.5934   -4.9043   23.0139 C   0  0  0  0  0  0  0  0  0  0  0  0
    6.5342   -3.0565   24.5693 C   0  0  0  0  0  0  0  0  0  0  0  0
    5.8098   -5.6620   23.8842 C   0  0  0  0  0  0  0  0  0  0  0  0
    5.7506   -3.8142   25.4396 C   0  0  0  0  0  0  0  0  0  0  0  0
   11.3280   -1.9875   23.0045 C   0  0  0  0  0  0  0  0  0  0  0  0
    6.6804    0.8106   18.4713 C   0  0  0  0  0  0  0  0  0  0  0  0
    8.5226   -0.4227   19.0743 C   0  0  0  0  0  0  0  0  0  0  0  0
    8.1768   -0.3838   20.4155 C   0  0  0  0  0  0  0  0  0  0  0  0
   12.5276   -2.5617   23.4250 C   0  0  0  0  0  0  0  0  0  0  0  0
    6.9557   -3.6015   23.3565 C   0  0  0  0  0  0  0  0  0  0  0  0
   11.3333   -0.7422   22.3762 C   0  0  0  0  0  0  0  0  0  0  0  0
   13.7326   -1.8905   23.2170 C   0  0  0  0  0  0  0  0  0  0  0  0
    5.3883   -5.1170   25.0971 C   0  0  0  0  0  0  0  0  0  0  0  0
   11.0670    3.2699   22.6925 C   0  0  0  0  0  0  0  0  0  0  0  0
   10.6441    2.0261   22.9402 C   0  0  0  0  0  0  0  0  0  0  0  0
    9.9178    1.2546   21.8893 C   0  0  0  0  0  0  0  0  0  0  0  0
    8.2006   -1.5273   22.6538 C   0  0  0  0  0  0  0  0  0  0  0  0
   12.4931   -3.8971   24.0944 C   0  0  0  0  0  0  0  0  0  0  0  0
   15.4701   -2.1890   24.9640 C   0  0  0  0  0  0  0  0  0  0  0  0
   15.7055   -3.3218   22.7482 C   0  0  0  0  0  0  0  0  0  0  0  0
    9.0337   -1.0598   21.4630 C   0  0  2  0  0  0  0  0  0  0  0  0
    7.8018    0.1591   18.0896 N   0  0  0  0  0  0  0  0  0  0  0  0
    7.7504   -2.8327   22.4734 N   0  0  0  0  0  0  0  0  0  0  0  0
   10.0844   -0.1439   21.9375 N   0  0  0  0  0  0  0  0  0  0  0  0
   14.9567   -2.4564   23.6363 N   0  0  0  0  0  0  0  0  0  0  0  0
    9.2450    1.8680   21.0604 O   0  0  0  0  0  0  0  0  0  0  0  0
    7.9805   -0.7941   23.6142 O   0  0  0  0  0  0  0  0  0  0  0  0
    4.3265   -6.1437   26.2761 Br  0  0  0  0  0  0  0  0  0  0  0  0
    5.3398    1.4420   20.0364 H   0  0  0  0  0  0  0  0  0  0  0  0
    6.7033    0.3538   21.8078 H   0  0  0  0  0  0  0  0  0  0  0  0
   12.5547    0.9001   21.6801 H   0  0  0  0  0  0  0  0  0  0  0  0
   14.6709   -0.1126   22.4225 H   0  0  0  0  0  0  0  0  0  0  0  0
    6.9165   -5.3388   22.0715 H   0  0  0  0  0  0  0  0  0  0  0  0
    6.8108   -2.0425   24.8461 H   0  0  0  0  0  0  0  0  0  0  0  0
    5.5358   -6.6753   23.6027 H   0  0  0  0  0  0  0  0  0  0  0  0
    5.4303   -3.3752   26.3809 H   0  0  0  0  0  0  0  0  0  0  0  0
   10.3887   -2.5116   23.1677 H   0  0  0  0  0  0  0  0  0  0  0  0
    6.1166    1.2707   17.6665 H   0  0  0  0  0  0  0  0  0  0  0  0
    9.4170   -0.9382   18.7386 H   0  0  0  0  0  0  0  0  0  0  0  0
   11.6150    3.8180   23.4518 H   0  0  0  0  0  0  0  0  0  0  0  0
   10.8798    3.7726   21.7501 H   0  0  0  0  0  0  0  0  0  0  0  0
   10.8666    1.5541   23.8902 H   0  0  0  0  0  0  0  0  0  0  0  0
   12.5842   -4.6966   23.3505 H   0  0  0  0  0  0  0  0  0  0  0  0
   13.3106   -3.9979   24.8186 H   0  0  0  0  0  0  0  0  0  0  0  0
   11.5566   -4.0382   24.6476 H   0  0  0  0  0  0  0  0  0  0  0  0
   16.4266   -2.7148   25.1006 H   0  0  0  0  0  0  0  0  0  0  0  0
   15.6262   -1.1069   25.0856 H   0  0  0  0  0  0  0  0  0  0  0  0
   14.7474   -2.5418   25.7145 H   0  0  0  0  0  0  0  0  0  0  0  0
   16.6229   -3.6598   23.2523 H   0  0  0  0  0  0  0  0  0  0  0  0
   15.0907   -4.1943   22.4822 H   0  0  0  0  0  0  0  0  0  0  0  0
   15.9713   -2.7685   21.8354 H   0  0  0  0  0  0  0  0  0  0  0  0
    9.5406   -1.9312   21.0305 H   0  0  0  0  0  0  0  0  0  0  0  0
    8.0250   -3.2869   21.6048 H   0  0  0  0  0  0  0  0  0  0  0  0
  1  2  2  0  0  0  0
  1 10  1  0  0  0  0
  2 12  1  0  0  0  0
  3  4  2  0  0  0  0
  3 15  1  0  0  0  0
  4 16  1  0  0  0  0
  5  7  2  0  0  0  0
  5 14  1  0  0  0  0
  6  8  1  0  0  0  0
  6 14  2  0  0  0  0
  7 17  1  0  0  0  0
  8 17  2  0  0  0  0
  9 13  1  0  0  0  0
  9 15  2  0  0  0  0
 10 26  2  0  0  0  0
 11 12  2  0  0  0  0
 11 26  1  0  0  0  0
 12 25  1  0  0  0  0
 13 16  2  0  0  0  0
 13 22  1  0  0  0  0
 14 27  1  0  0  0  0
 15 28  1  0  0  0  0
 16 29  1  0  0  0  0
 17 32  1  0  0  0  0
 18 19  2  0  0  0  0
 19 20  1  0  0  0  0
 20 28  1  0  0  0  0
 20 30  2  0  0  0  0
 21 25  1  0  0  0  0
 21 27  1  0  0  0  0
 21 31  2  0  0  0  0
 23 29  1  0  0  0  0
 24 29  1  0  0  0  0
 25 28  1  0  0  0  0
  1 33  1  0  0  0  0
  2 34  1  0  0  0  0
  3 35  1  0  0  0  0
  4 36  1  0  0  0  0
  5 37  1  0  0  0  0
  6 38  1  0  0  0  0
  7 39  1  0  0  0  0
  8 40  1  0  0  0  0
  9 41  1  0  0  0  0
 10 42  1  0  0  0  0
 11 43  1  0  0  0  0
 18 44  1  0  0  0  0
 18 45  1  0  0  0  0
 19 46  1  0  0  0  0
 22 47  1  0  0  0  0
 22 48  1  0  0  0  0
 22 49  1  0  0  0  0
 23 50  1  0  0  0  0
 23 51  1  0  0  0  0
 23 52  1  0  0  0  0
 24 53  1  0  0  0  0
 24 54  1  0  0  0  0
 24 55  1  0  0  0  0
 25 56  1  0  0  0  0
 27 57  1  0  0  0  0
M  END
> <series>
3-aminopyridine-like

> <r_inhibition_at_20_uM>
0.0

> <r_inhibition_at_50_uM>

> <r_IC50>

> <f_inhibition_at_20_uM>
3.4472285000000005

> <f_inhibition_at_50_uM>
3.4251834999999997

> <f_avg_IC50>

> <f_avg_pIC50>

> <ASSAYED>
True

> <Hybrid2>
-8.668908

> <docked_fragment>
x0678

> <Mpro-_dock>
-5.420321

> <site>
active-noncovalent

$$$$
LON-WEI-d1c9908a-3
  -OEChem-07042000473D

 65 67  0     1  0  0  0  0  0999 V2000
    6.0847    0.4717   19.4570 C   0  0  0  0  0  0  0  0  0  0  0  0
    6.8669   -0.0617   20.4753 C   0  0  0  0  0  0  0  0  0  0  0  0
   12.9522    0.0371   23.9404 C   0  0  0  0  0  0  0  0  0  0  0  0
   13.0622   -1.8283   22.4090 C   0  0  0  0  0  0  0  0  0  0  0  0
   11.7010    0.3825   23.4299 C   0  0  0  0  0  0  0  0  0  0  0  0
   11.8109   -1.4829   21.8984 C   0  0  0  0  0  0  0  0  0  0  0  0
    7.2234   -3.9114   24.2455 C   0  0  0  0  0  0  0  0  0  0  0  0
    6.5198   -4.8304   25.0238 C   0  0  0  0  0  0  0  0  0  0  0  0
    5.9205   -6.0588   23.0316 C   0  0  0  0  0  0  0  0  0  0  0  0
    6.6289    0.5302   18.1842 C   0  0  0  0  0  0  0  0  0  0  0  0
    8.6028   -0.4114   18.8878 C   0  0  0  0  0  0  0  0  0  0  0  0
   13.6329   -1.0683   23.4299 C   0  0  0  0  0  0  0  0  0  0  0  0
    8.1512   -0.5139   20.1937 C   0  0  0  0  0  0  0  0  0  0  0  0
    6.6240   -5.1397   22.2532 C   0  0  0  0  0  0  0  0  0  0  0  0
   11.1303   -0.3775   22.4089 C   0  0  0  0  0  0  0  0  0  0  0  0
    7.2755   -4.0660   22.8601 C   0  0  0  0  0  0  0  0  0  0  0  0
    5.8684   -5.9042   24.4169 C   0  0  0  0  0  0  0  0  0  0  0  0
   10.1368    3.6127   22.3122 C   0  0  0  0  0  0  0  0  0  0  0  0
   10.3947    2.4160   21.7754 C   0  0  0  0  0  0  0  0  0  0  0  0
    9.3854    1.3198   21.8592 C   0  0  0  0  0  0  0  0  0  0  0  0
    8.1956   -1.7730   22.3687 C   0  0  0  0  0  0  0  0  0  0  0  0
    6.6625   -5.3305   20.7717 C   0  0  0  0  0  0  0  0  0  0  0  0
   14.8916   -1.7532   25.5017 C   0  0  0  0  0  0  0  0  0  0  0  0
   15.9981   -0.2782   23.7881 C   0  0  0  0  0  0  0  0  0  0  0  0
   15.6381   -2.6942   23.3248 C   0  0  0  0  0  0  0  0  0  0  0  0
    5.1705   -6.5834   26.5866 C   0  0  0  0  0  0  0  0  0  0  0  0
    9.0267   -1.0999   21.2793 C   0  0  2  0  0  0  0  0  0  0  0  0
   15.0123   -1.4489   23.9927 C   0  0  0  0  0  0  0  0  0  0  0  0
    7.8722    0.1009   17.8722 N   0  0  0  0  0  0  0  0  0  0  0  0
    7.9927   -3.1218   22.0877 N   0  0  0  0  0  0  0  0  0  0  0  0
    9.8786   -0.0325   21.8983 N   0  0  0  0  0  0  0  0  0  0  0  0
    8.1894    1.6126   21.8641 O   0  0  0  0  0  0  0  0  0  0  0  0
    7.7777   -1.1477   23.3396 O   0  0  0  0  0  0  0  0  0  0  0  0
    5.1823   -6.8014   25.1767 O   0  0  0  0  0  0  0  0  0  0  0  0
    5.0807    0.8301   19.6534 H   0  0  0  0  0  0  0  0  0  0  0  0
    6.4678   -0.1211   21.4843 H   0  0  0  0  0  0  0  0  0  0  0  0
   13.3903    0.6362   24.7344 H   0  0  0  0  0  0  0  0  0  0  0  0
   13.5859   -2.6906   22.0048 H   0  0  0  0  0  0  0  0  0  0  0  0
   11.1793    1.2457   23.8355 H   0  0  0  0  0  0  0  0  0  0  0  0
   11.3759   -2.0815   21.1020 H   0  0  0  0  0  0  0  0  0  0  0  0
    7.7263   -3.0778   24.7296 H   0  0  0  0  0  0  0  0  0  0  0  0
    6.4833   -4.7048   26.1025 H   0  0  0  0  0  0  0  0  0  0  0  0
    5.4112   -6.8967   22.5614 H   0  0  0  0  0  0  0  0  0  0  0  0
    6.0592    0.9379   17.3555 H   0  0  0  0  0  0  0  0  0  0  0  0
    9.5963   -0.7479   18.6079 H   0  0  0  0  0  0  0  0  0  0  0  0
   10.8643    4.4133   22.2282 H   0  0  0  0  0  0  0  0  0  0  0  0
    9.2172    3.8266   22.8456 H   0  0  0  0  0  0  0  0  0  0  0  0
   11.3198    2.2487   21.2361 H   0  0  0  0  0  0  0  0  0  0  0  0
    5.8219   -4.8088   20.3004 H   0  0  0  0  0  0  0  0  0  0  0  0
    7.5970   -4.9440   20.3472 H   0  0  0  0  0  0  0  0  0  0  0  0
    6.6071   -6.3938   20.5082 H   0  0  0  0  0  0  0  0  0  0  0  0
   15.8633   -2.0279   25.9285 H   0  0  0  0  0  0  0  0  0  0  0  0
   14.5245   -0.8918   26.0704 H   0  0  0  0  0  0  0  0  0  0  0  0
   14.2006   -2.5852   25.6822 H   0  0  0  0  0  0  0  0  0  0  0  0
   16.9974   -0.5052   24.1754 H   0  0  0  0  0  0  0  0  0  0  0  0
   16.1135   -0.0399   22.7243 H   0  0  0  0  0  0  0  0  0  0  0  0
   15.6461    0.6273   24.2965 H   0  0  0  0  0  0  0  0  0  0  0  0
   16.6184   -2.9248   23.7591 H   0  0  0  0  0  0  0  0  0  0  0  0
   15.0100   -3.5827   23.4587 H   0  0  0  0  0  0  0  0  0  0  0  0
   15.7902   -2.5420   22.2498 H   0  0  0  0  0  0  0  0  0  0  0  0
    4.5889   -7.3704   27.0728 H   0  0  0  0  0  0  0  0  0  0  0  0
    4.7318   -5.6058   26.8014 H   0  0  0  0  0  0  0  0  0  0  0  0
    6.1974   -6.6096   26.9589 H   0  0  0  0  0  0  0  0  0  0  0  0
    9.7086   -1.8455   20.8523 H   0  0  0  0  0  0  0  0  0  0  0  0
    8.4089   -3.4690   21.2262 H   0  0  0  0  0  0  0  0  0  0  0  0
  1  2  2  0  0  0  0
  1 10  1  0  0  0  0
  2 13  1  0  0  0  0
  3  5  2  0  0  0  0
  3 12  1  0  0  0  0
  4  6  1  0  0  0  0
  4 12  2  0  0  0  0
  5 15  1  0  0  0  0
  6 15  2  0  0  0  0
  7  8  2  0  0  0  0
  7 16  1  0  0  0  0
  8 17  1  0  0  0  0
  9 14  1  0  0  0  0
  9 17  2  0  0  0  0
 10 29  2  0  0  0  0
 11 13  2  0  0  0  0
 11 29  1  0  0  0  0
 12 28  1  0  0  0  0
 13 27  1  0  0  0  0
 14 16  2  0  0  0  0
 14 22  1  0  0  0  0
 15 31  1  0  0  0  0
 16 30  1  0  0  0  0
 17 34  1  0  0  0  0
 18 19  2  0  0  0  0
 19 20  1  0  0  0  0
 20 31  1  0  0  0  0
 20 32  2  0  0  0  0
 21 27  1  0  0  0  0
 21 30  1  0  0  0  0
 21 33  2  0  0  0  0
 23 28  1  0  0  0  0
 24 28  1  0  0  0  0
 25 28  1  0  0  0  0
 26 34  1  0  0  0  0
 27 31  1  0  0  0  0
  1 35  1  0  0  0  0
  2 36  1  0  0  0  0
  3 37  1  0  0  0  0
  4 38  1  0  0  0  0
  5 39  1  0  0  0  0
  6 40  1  0  0  0  0
  7 41  1  0  0  0  0
  8 42  1  0  0  0  0
  9 43  1  0  0  0  0
 10 44  1  0  0  0  0
 11 45  1  0  0  0  0
 18 46  1  0  0  0  0
 18 47  1  0  0  0  0
 19 48  1  0  0  0  0
 22 49  1  0  0  0  0
 22 50  1  0  0  0  0
 22 51  1  0  0  0  0
 23 52  1  0  0  0  0
 23 53  1  0  0  0  0
 23 54  1  0  0  0  0
 24 55  1  0  0  0  0
 24 56  1  0  0  0  0
 24 57  1  0  0  0  0
 25 58  1  0  0  0  0
 25 59  1  0  0  0  0
 25 60  1  0  0  0  0
 26 61  1  0  0  0  0
 26 62  1  0  0  0  0
 26 63  1  0  0  0  0
 27 64  1  0  0  0  0
 30 65  1  0  0  0  0
M  END
> <series>
3-aminopyridine-like

> <r_inhibition_at_20_uM>
0.0

> <r_inhibition_at_50_uM>
-2.2500000000000018

> <r_IC50>

> <f_inhibition_at_20_uM>

> <f_inhibition_at_50_uM>
22.44898

> <f_avg_IC50>
99.03000000000002

> <f_avg_pIC50>

> <ASSAYED>
True

> <Hybrid2>
-8.657747

> <docked_fragment>
x0678

> <Mpro-_dock>
-4.790601

> <site>
active-noncovalent

$$$$
JAG-UCB-a3ef7265-4
  -OEChem-07042000473D

 31 32  0     0  0  0  0  0  0999 V2000
   14.0799   -1.8284   22.3149 C   0  0  0  0  0  0  0  0  0  0  0  0
   12.7626   -1.4545   22.0491 C   0  0  0  0  0  0  0  0  0  0  0  0
   14.6213   -1.6210   23.5836 C   0  0  0  0  0  0  0  0  0  0  0  0
   11.9868   -0.8732   23.0520 C   0  0  0  0  0  0  0  0  0  0  0  0
   12.5281   -0.6658   24.3207 C   0  0  0  0  0  0  0  0  0  0  0  0
   13.8454   -1.0397   24.5865 C   0  0  0  0  0  0  0  0  0  0  0  0
    6.9042    0.5272   18.2272 C   0  0  0  0  0  0  0  0  0  0  0  0
    8.4253    0.0159   19.6880 C   0  0  0  0  0  0  0  0  0  0  0  0
   10.3426   -0.0347   21.3208 C   0  0  0  0  0  0  0  0  0  0  0  0
    5.5961    0.8914   17.6532 C   0  0  0  0  0  0  0  0  0  0  0  0
    6.1247    0.4417   20.6119 C   0  0  0  0  0  0  0  0  0  0  0  0
   10.5786   -0.4752   22.7633 C   0  0  0  0  0  0  0  0  0  0  0  0
    8.0301    0.3411   17.5760 N   0  0  0  0  0  0  0  0  0  0  0  0
    8.9978    0.0158   18.5054 N   0  0  0  0  0  0  0  0  0  0  0  0
    7.1069    0.3327   19.5598 N   0  0  0  0  0  0  0  0  0  0  0  0
    9.0216   -0.2592   20.9417 N   0  0  0  0  0  0  0  0  0  0  0  0
   11.2405    0.4456   20.6365 O   0  0  0  0  0  0  0  0  0  0  0  0
   11.7780   -0.1049   25.2814 F   0  0  0  0  0  0  0  0  0  0  0  0
   14.5195   -0.7861   26.1504 Cl  0  0  0  0  0  0  0  0  0  0  0  0
   14.6839   -2.2810   21.5339 H   0  0  0  0  0  0  0  0  0  0  0  0
   12.3500   -1.6203   21.0573 H   0  0  0  0  0  0  0  0  0  0  0  0
   15.6494   -1.9175   23.7757 H   0  0  0  0  0  0  0  0  0  0  0  0
    5.0131   -0.0062   17.3869 H   0  0  0  0  0  0  0  0  0  0  0  0
    4.9868    1.4892   18.3535 H   0  0  0  0  0  0  0  0  0  0  0  0
    5.6989    1.5052   16.7411 H   0  0  0  0  0  0  0  0  0  0  0  0
    5.6635   -0.5404   20.7460 H   0  0  0  0  0  0  0  0  0  0  0  0
    6.6143    0.7634   21.5353 H   0  0  0  0  0  0  0  0  0  0  0  0
    5.3724    1.1831   20.3285 H   0  0  0  0  0  0  0  0  0  0  0  0
    9.8923   -1.3101   22.9811 H   0  0  0  0  0  0  0  0  0  0  0  0
   10.2712    0.3493   23.4274 H   0  0  0  0  0  0  0  0  0  0  0  0
    8.4143   -0.6689   21.6484 H   0  0  0  0  0  0  0  0  0  0  0  0
  1  2  2  0  0  0  0
  1  3  1  0  0  0  0
  2  4  1  0  0  0  0
  3  6  2  0  0  0  0
  4  5  2  0  0  0  0
  4 12  1  0  0  0  0
  5  6  1  0  0  0  0
  5 18  1  0  0  0  0
  6 19  1  0  0  0  0
  7 10  1  0  0  0  0
  7 13  2  0  0  0  0
  7 15  1  0  0  0  0
  8 14  2  0  0  0  0
  8 15  1  0  0  0  0
  8 16  1  0  0  0  0
  9 12  1  0  0  0  0
  9 16  1  0  0  0  0
  9 17  2  0  0  0  0
 11 15  1  0  0  0  0
 13 14  1  0  0  0  0
  1 20  1  0  0  0  0
  2 21  1  0  0  0  0
  3 22  1  0  0  0  0
 10 23  1  0  0  0  0
 10 24  1  0  0  0  0
 10 25  1  0  0  0  0
 11 26  1  0  0  0  0
 11 27  1  0  0  0  0
 11 28  1  0  0  0  0
 12 29  1  0  0  0  0
 12 30  1  0  0  0  0
 16 31  1  0  0  0  0
M  END
> <series>
3-aminopyridine-like

> <r_inhibition_at_20_uM>

> <r_inhibition_at_50_uM>
0.0

> <r_IC50>

> <f_inhibition_at_20_uM>
-12.704439500000001

> <f_inhibition_at_50_uM>
-10.7713325

> <f_avg_IC50>

> <f_avg_pIC50>

> <ASSAYED>
True

> <Hybrid2>
-8.638626

> <docked_fragment>
x0678

> <Mpro-_dock>
-6.080328

> <site>
active-noncovalent

$$$$
ALV-UNI-7ff1a6f9-45
  -OEChem-07042000473D

 37 39  0     0  0  0  0  0  0999 V2000
   15.2678   -0.5301   24.9259 C   0  0  0  0  0  0  0  0  0  0  0  0
   15.2186   -1.9081   24.7379 C   0  0  0  0  0  0  0  0  0  0  0  0
   14.3285    0.2936   24.3049 C   0  0  0  0  0  0  0  0  0  0  0  0
   14.2299   -2.4678   23.9282 C   0  0  0  0  0  0  0  0  0  0  0  0
   12.3728    0.5615   22.8536 C   0  0  0  0  0  0  0  0  0  0  0  0
   11.3841    0.0018   22.0439 C   0  0  0  0  0  0  0  0  0  0  0  0
    5.3820    1.4672   18.4858 C   0  0  0  0  0  0  0  0  0  0  0  0
   12.2742   -2.2000   22.4769 C   0  0  0  0  0  0  0  0  0  0  0  0
    6.6359    0.3811   20.2272 C   0  0  0  0  0  0  0  0  0  0  0  0
    6.3540    1.0417   17.5947 C   0  0  0  0  0  0  0  0  0  0  0  0
   13.3264   -0.2525   23.4865 C   0  0  0  0  0  0  0  0  0  0  0  0
   13.2764   -1.6539   23.2953 C   0  0  0  0  0  0  0  0  0  0  0  0
   11.3349   -1.3763   21.8559 C   0  0  0  0  0  0  0  0  0  0  0  0
    5.5330    1.1265   19.8253 C   0  0  0  0  0  0  0  0  0  0  0  0
    7.5517    0.0040   19.2582 C   0  0  0  0  0  0  0  0  0  0  0  0
    8.9735   -1.1787   20.9683 C   0  0  0  0  0  0  0  0  0  0  0  0
    4.5163    1.5589   20.8262 C   0  0  0  0  0  0  0  0  0  0  0  0
   10.2770   -1.9729   20.9900 C   0  0  0  0  0  0  0  0  0  0  0  0
    7.4388    0.3163   17.9477 N   0  0  0  0  0  0  0  0  0  0  0  0
    8.6707   -0.7545   19.6769 N   0  0  0  0  0  0  0  0  0  0  0  0
    8.3244   -0.9737   21.9890 O   0  0  0  0  0  0  0  0  0  0  0  0
   16.0380   -0.0953   25.5561 H   0  0  0  0  0  0  0  0  0  0  0  0
   15.9506   -2.5486   25.2213 H   0  0  0  0  0  0  0  0  0  0  0  0
   14.3862    1.3682   24.4665 H   0  0  0  0  0  0  0  0  0  0  0  0
   14.2108   -3.5477   23.7952 H   0  0  0  0  0  0  0  0  0  0  0  0
   12.3924    1.6414   22.9863 H   0  0  0  0  0  0  0  0  0  0  0  0
   10.6564    0.6505   21.5636 H   0  0  0  0  0  0  0  0  0  0  0  0
    4.5331    2.0476   18.1408 H   0  0  0  0  0  0  0  0  0  0  0  0
   12.2244   -3.2767   22.3217 H   0  0  0  0  0  0  0  0  0  0  0  0
    6.7695    0.1063   21.2692 H   0  0  0  0  0  0  0  0  0  0  0  0
    6.2827    1.2813   16.5389 H   0  0  0  0  0  0  0  0  0  0  0  0
    3.7277    0.8022   20.9218 H   0  0  0  0  0  0  0  0  0  0  0  0
    4.9698    1.7148   21.8139 H   0  0  0  0  0  0  0  0  0  0  0  0
    4.0514    2.5107   20.5370 H   0  0  0  0  0  0  0  0  0  0  0  0
   10.6378   -2.0638   19.9522 H   0  0  0  0  0  0  0  0  0  0  0  0
   10.0470   -2.9990   21.3206 H   0  0  0  0  0  0  0  0  0  0  0  0
    9.3310   -1.0209   18.9495 H   0  0  0  0  0  0  0  0  0  0  0  0
  1  2  1  0  0  0  0
  1  3  2  0  0  0  0
  2  4  2  0  0  0  0
  3 11  1  0  0  0  0
  4 12  1  0  0  0  0
  5  6  2  0  0  0  0
  5 11  1  0  0  0  0
  6 13  1  0  0  0  0
  7 10  2  0  0  0  0
  7 14  1  0  0  0  0
  8 12  1  0  0  0  0
  8 13  2  0  0  0  0
  9 14  2  0  0  0  0
  9 15  1  0  0  0  0
 10 19  1  0  0  0  0
 11 12  2  0  0  0  0
 13 18  1  0  0  0  0
 14 17  1  0  0  0  0
 15 19  2  0  0  0  0
 15 20  1  0  0  0  0
 16 18  1  0  0  0  0
 16 20  1  0  0  0  0
 16 21  2  0  0  0  0
  1 22  1  0  0  0  0
  2 23  1  0  0  0  0
  3 24  1  0  0  0  0
  4 25  1  0  0  0  0
  5 26  1  0  0  0  0
  6 27  1  0  0  0  0
  7 28  1  0  0  0  0
  8 29  1  0  0  0  0
  9 30  1  0  0  0  0
 10 31  1  0  0  0  0
 17 32  1  0  0  0  0
 17 33  1  0  0  0  0
 17 34  1  0  0  0  0
 18 35  1  0  0  0  0
 18 36  1  0  0  0  0
 20 37  1  0  0  0  0
M  END
> <series>
3-aminopyridine-like

> <r_inhibition_at_20_uM>
0.0

> <r_inhibition_at_50_uM>

> <r_IC50>

> <f_inhibition_at_20_uM>
3.570383

> <f_inhibition_at_50_uM>
8.233209

> <f_avg_IC50>

> <f_avg_pIC50>

> <ASSAYED>
True

> <Hybrid2>
-8.631414

> <docked_fragment>
x0678

> <Mpro-_dock>
-5.726468

> <site>
active-noncovalent

$$$$
LON-WEI-d1c9908a-11
  -OEChem-07042000473D

 56 59  0     1  0  0  0  0  0999 V2000
    6.1931    0.6453   19.5555 C   0  0  0  0  0  0  0  0  0  0  0  0
   12.5719   -2.6275   23.2041 C   0  0  0  0  0  0  0  0  0  0  0  0
   13.6315   -0.5237   22.6671 C   0  0  0  0  0  0  0  0  0  0  0  0
    6.9620   -0.0027   20.5157 C   0  0  0  0  0  0  0  0  0  0  0  0
   11.3469   -2.1215   22.7695 C   0  0  0  0  0  0  0  0  0  0  0  0
   12.4064   -0.0177   22.2324 C   0  0  0  0  0  0  0  0  0  0  0  0
    6.9339   -5.4453   22.1397 C   0  0  0  0  0  0  0  0  0  0  0  0
    6.6043   -3.8045   23.8821 C   0  0  0  0  0  0  0  0  0  0  0  0
    6.1822   -6.3684   22.8666 C   0  0  0  0  0  0  0  0  0  0  0  0
    5.8525   -4.7275   24.6091 C   0  0  0  0  0  0  0  0  0  0  0  0
    6.7054    0.7426   18.2718 C   0  0  0  0  0  0  0  0  0  0  0  0
    8.6246   -0.3767   18.8568 C   0  0  0  0  0  0  0  0  0  0  0  0
   13.7142   -1.8286   23.1529 C   0  0  0  0  0  0  0  0  0  0  0  0
    8.2022   -0.5263   20.1679 C   0  0  0  0  0  0  0  0  0  0  0  0
    7.1450   -4.1634   22.6474 C   0  0  0  0  0  0  0  0  0  0  0  0
   11.2641   -0.8166   22.2837 C   0  0  0  0  0  0  0  0  0  0  0  0
    5.6414   -6.0095   24.1013 C   0  0  0  0  0  0  0  0  0  0  0  0
   10.5826    3.0894   23.0225 C   0  0  0  0  0  0  0  0  0  0  0  0
   10.2724    1.7915   23.1025 C   0  0  0  0  0  0  0  0  0  0  0  0
    9.6863    1.0836   21.9267 C   0  0  0  0  0  0  0  0  0  0  0  0
    8.2145   -1.9152   22.2629 C   0  0  0  0  0  0  0  0  0  0  0  0
   15.1312   -2.8253   25.0611 C   0  0  0  0  0  0  0  0  0  0  0  0
   15.8051   -1.5586   24.6351 C   0  0  0  0  0  0  0  0  0  0  0  0
   15.0230   -2.3690   23.6173 C   0  0  0  0  0  0  0  0  0  0  0  0
   15.8002   -3.1316   22.5804 C   0  0  0  0  0  0  0  0  0  0  0  0
    9.0622   -1.2373   21.1893 C   0  0  2  0  0  0  0  0  0  0  0  0
    7.9057    0.2465   17.8964 N   0  0  0  0  0  0  0  0  0  0  0  0
    7.9073   -3.2268   21.9097 N   0  0  0  0  0  0  0  0  0  0  0  0
    9.9884   -0.2896   21.8312 N   0  0  0  0  0  0  0  0  0  0  0  0
    9.0032    1.7244   21.1274 O   0  0  0  0  0  0  0  0  0  0  0  0
    7.8692   -1.3223   23.2814 O   0  0  0  0  0  0  0  0  0  0  0  0
    4.6229   -7.2602   25.0861 Br  0  0  0  0  0  0  0  0  0  0  0  0
    5.2232    1.0609   19.8039 H   0  0  0  0  0  0  0  0  0  0  0  0
   12.6261   -3.6455   23.5809 H   0  0  0  0  0  0  0  0  0  0  0  0
   14.5161    0.1062   22.6234 H   0  0  0  0  0  0  0  0  0  0  0  0
    6.5871   -0.0952   21.5314 H   0  0  0  0  0  0  0  0  0  0  0  0
   10.4632   -2.7531   22.8141 H   0  0  0  0  0  0  0  0  0  0  0  0
   12.3541    1.0007   21.8559 H   0  0  0  0  0  0  0  0  0  0  0  0
    7.3508   -5.7355   21.1788 H   0  0  0  0  0  0  0  0  0  0  0  0
    6.7626   -2.8083   24.2870 H   0  0  0  0  0  0  0  0  0  0  0  0
    6.0266   -7.3631   22.4573 H   0  0  0  0  0  0  0  0  0  0  0  0
    5.4380   -4.4326   25.5696 H   0  0  0  0  0  0  0  0  0  0  0  0
    6.1445    1.2390   17.4868 H   0  0  0  0  0  0  0  0  0  0  0  0
    9.5833   -0.7646   18.5267 H   0  0  0  0  0  0  0  0  0  0  0  0
   11.0299    3.5938   23.8726 H   0  0  0  0  0  0  0  0  0  0  0  0
   10.3992    3.6789   22.1310 H   0  0  0  0  0  0  0  0  0  0  0  0
   10.4873    1.2348   24.0073 H   0  0  0  0  0  0  0  0  0  0  0  0
   15.7601   -3.6781   25.2890 H   0  0  0  0  0  0  0  0  0  0  0  0
   14.2606   -2.7411   25.7014 H   0  0  0  0  0  0  0  0  0  0  0  0
   15.3871   -0.6237   24.9907 H   0  0  0  0  0  0  0  0  0  0  0  0
   16.8873   -1.5587   24.5754 H   0  0  0  0  0  0  0  0  0  0  0  0
   16.7489   -3.4983   22.9915 H   0  0  0  0  0  0  0  0  0  0  0  0
   16.0301   -2.4964   21.7160 H   0  0  0  0  0  0  0  0  0  0  0  0
   15.2308   -3.9977   22.2210 H   0  0  0  0  0  0  0  0  0  0  0  0
    9.6768   -2.0018   20.6982 H   0  0  0  0  0  0  0  0  0  0  0  0
    8.2739   -3.5495   21.0166 H   0  0  0  0  0  0  0  0  0  0  0  0
  1  4  2  0  0  0  0
  1 11  1  0  0  0  0
  2  5  2  0  0  0  0
  2 13  1  0  0  0  0
  3  6  1  0  0  0  0
  3 13  2  0  0  0  0
  4 14  1  0  0  0  0
  5 16  1  0  0  0  0
  6 16  2  0  0  0  0
  7  9  2  0  0  0  0
  7 15  1  0  0  0  0
  8 10  1  0  0  0  0
  8 15  2  0  0  0  0
  9 17  1  0  0  0  0
 10 17  2  0  0  0  0
 11 27  2  0  0  0  0
 12 14  2  0  0  0  0
 12 27  1  0  0  0  0
 13 24  1  0  0  0  0
 14 26  1  0  0  0  0
 15 28  1  0  0  0  0
 16 29  1  0  0  0  0
 17 32  1  0  0  0  0
 18 19  2  0  0  0  0
 19 20  1  0  0  0  0
 20 29  1  0  0  0  0
 20 30  2  0  0  0  0
 21 26  1  0  0  0  0
 21 28  1  0  0  0  0
 21 31  2  0  0  0  0
 22 23  1  0  0  0  0
 22 24  1  0  0  0  0
 23 24  1  0  0  0  0
 24 25  1  0  0  0  0
 26 29  1  0  0  0  0
  1 33  1  0  0  0  0
  2 34  1  0  0  0  0
  3 35  1  0  0  0  0
  4 36  1  0  0  0  0
  5 37  1  0  0  0  0
  6 38  1  0  0  0  0
  7 39  1  0  0  0  0
  8 40  1  0  0  0  0
  9 41  1  0  0  0  0
 10 42  1  0  0  0  0
 11 43  1  0  0  0  0
 12 44  1  0  0  0  0
 18 45  1  0  0  0  0
 18 46  1  0  0  0  0
 19 47  1  0  0  0  0
 22 48  1  0  0  0  0
 22 49  1  0  0  0  0
 23 50  1  0  0  0  0
 23 51  1  0  0  0  0
 25 52  1  0  0  0  0
 25 53  1  0  0  0  0
 25 54  1  0  0  0  0
 26 55  1  0  0  0  0
 28 56  1  0  0  0  0
M  END
> <series>
3-aminopyridine-like

> <r_inhibition_at_20_uM>
2.51

> <r_inhibition_at_50_uM>
67.75

> <r_IC50>
19.43059241679732

> <f_inhibition_at_20_uM>

> <f_inhibition_at_50_uM>
47.05766

> <f_avg_IC50>
83.65200055298044

> <f_avg_pIC50>
4.077523668344971

> <ASSAYED>
True

> <Hybrid2>
-8.623498

> <docked_fragment>
x0678

> <Mpro-_dock>
-5.02325

> <site>
active-noncovalent

$$$$
LON-WEI-8f408cad-10
  -OEChem-07042000473D

 61 63  0     1  0  0  0  0  0999 V2000
    6.1570    0.8151   19.5680 C   0  0  0  0  0  0  0  0  0  0  0  0
    6.9500    0.1883   20.5227 C   0  0  0  0  0  0  0  0  0  0  0  0
   12.4667    0.0714   21.9847 C   0  0  0  0  0  0  0  0  0  0  0  0
   13.6948   -0.4542   22.3860 C   0  0  0  0  0  0  0  0  0  0  0  0
    6.8269   -5.1657   22.4148 C   0  0  0  0  0  0  0  0  0  0  0  0
    6.6335   -3.4326   24.0869 C   0  0  0  0  0  0  0  0  0  0  0  0
    6.0823   -6.0266   23.2209 C   0  0  0  0  0  0  0  0  0  0  0  0
    5.8888   -4.2935   24.8931 C   0  0  0  0  0  0  0  0  0  0  0  0
   11.3689   -1.9675   22.6737 C   0  0  0  0  0  0  0  0  0  0  0  0
    6.6104    0.8330   18.2588 C   0  0  0  0  0  0  0  0  0  0  0  0
    8.5188   -0.3214   18.8095 C   0  0  0  0  0  0  0  0  0  0  0  0
    8.1550   -0.3932   20.1445 C   0  0  0  0  0  0  0  0  0  0  0  0
   12.5971   -2.4931   23.0750 C   0  0  0  0  0  0  0  0  0  0  0  0
    7.1026   -3.8687   22.8478 C   0  0  0  0  0  0  0  0  0  0  0  0
   11.3037   -0.6853   22.1286 C   0  0  0  0  0  0  0  0  0  0  0  0
   13.7600   -1.7364   22.9312 C   0  0  0  0  0  0  0  0  0  0  0  0
    5.6132   -5.5905   24.4601 C   0  0  0  0  0  0  0  0  0  0  0  0
   10.7823    3.2727   22.7031 C   0  0  0  0  0  0  0  0  0  0  0  0
   10.4353    1.9915   22.8617 C   0  0  0  0  0  0  0  0  0  0  0  0
    9.7717    1.2481   21.7508 C   0  0  0  0  0  0  0  0  0  0  0  0
    8.2233   -1.6793   22.3031 C   0  0  0  0  0  0  0  0  0  0  0  0
   12.6384   -3.8696   23.6548 C   0  0  0  0  0  0  0  0  0  0  0  0
   15.4914   -2.0423   24.6830 C   0  0  0  0  0  0  0  0  0  0  0  0
   15.8244   -3.0086   22.4017 C   0  0  0  0  0  0  0  0  0  0  0  0
    4.4381   -5.9199   26.5013 C   0  0  0  0  0  0  0  0  0  0  0  0
    9.0398   -1.0831   21.1592 C   0  0  2  0  0  0  0  0  0  0  0  0
    7.7750    0.2790   17.8535 N   0  0  0  0  0  0  0  0  0  0  0  0
    7.8582   -2.9952   22.0301 N   0  0  0  0  0  0  0  0  0  0  0  0
   10.0251   -0.1375   21.7098 N   0  0  0  0  0  0  0  0  0  0  0  0
   15.0120   -2.2521   23.3324 N   0  0  0  0  0  0  0  0  0  0  0  0
    9.0718    1.8725   20.9530 O   0  0  0  0  0  0  0  0  0  0  0  0
    7.9459   -1.0266   23.3058 O   0  0  0  0  0  0  0  0  0  0  0  0
    4.8865   -6.4305   25.2468 O   0  0  0  0  0  0  0  0  0  0  0  0
    5.2138    1.2749   19.8399 H   0  0  0  0  0  0  0  0  0  0  0  0
    6.6213    0.1577   21.5580 H   0  0  0  0  0  0  0  0  0  0  0  0
   12.4280    1.0720   21.5617 H   0  0  0  0  0  0  0  0  0  0  0  0
   14.5944    0.1451   22.2704 H   0  0  0  0  0  0  0  0  0  0  0  0
    7.1874   -5.5161   21.4509 H   0  0  0  0  0  0  0  0  0  0  0  0
    6.8423   -2.4240   24.4347 H   0  0  0  0  0  0  0  0  0  0  0  0
    5.8707   -7.0358   22.8782 H   0  0  0  0  0  0  0  0  0  0  0  0
    5.5262   -3.9480   25.8574 H   0  0  0  0  0  0  0  0  0  0  0  0
   10.4625   -2.5584   22.7868 H   0  0  0  0  0  0  0  0  0  0  0  0
    6.0286    1.3098   17.4768 H   0  0  0  0  0  0  0  0  0  0  0  0
    9.4479   -0.7571   18.4552 H   0  0  0  0  0  0  0  0  0  0  0  0
   11.2855    3.8020   23.5055 H   0  0  0  0  0  0  0  0  0  0  0  0
   10.5754    3.8245   21.7928 H   0  0  0  0  0  0  0  0  0  0  0  0
   10.6754    1.4720   23.7821 H   0  0  0  0  0  0  0  0  0  0  0  0
   12.7884   -4.6108   22.8616 H   0  0  0  0  0  0  0  0  0  0  0  0
   13.4516   -3.9676   24.3840 H   0  0  0  0  0  0  0  0  0  0  0  0
   11.7058   -4.1049   24.1822 H   0  0  0  0  0  0  0  0  0  0  0  0
   16.4773   -2.5160   24.8003 H   0  0  0  0  0  0  0  0  0  0  0  0
   15.5778   -0.9632   24.8778 H   0  0  0  0  0  0  0  0  0  0  0  0
   14.7832   -2.4883   25.3968 H   0  0  0  0  0  0  0  0  0  0  0  0
   16.7550   -3.3220   22.8974 H   0  0  0  0  0  0  0  0  0  0  0  0
   15.2688   -3.8978   22.0691 H   0  0  0  0  0  0  0  0  0  0  0  0
   16.0660   -2.3805   21.5316 H   0  0  0  0  0  0  0  0  0  0  0  0
    3.8713   -6.6915   27.0280 H   0  0  0  0  0  0  0  0  0  0  0  0
    3.8100   -5.0412   26.3345 H   0  0  0  0  0  0  0  0  0  0  0  0
    5.3066   -5.6361   27.1004 H   0  0  0  0  0  0  0  0  0  0  0  0
    9.6057   -1.8907   20.6788 H   0  0  0  0  0  0  0  0  0  0  0  0
    8.1713   -3.3727   21.1382 H   0  0  0  0  0  0  0  0  0  0  0  0
  1  2  2  0  0  0  0
  1 10  1  0  0  0  0
  2 12  1  0  0  0  0
  3  4  2  0  0  0  0
  3 15  1  0  0  0  0
  4 16  1  0  0  0  0
  5  7  2  0  0  0  0
  5 14  1  0  0  0  0
  6  8  1  0  0  0  0
  6 14  2  0  0  0  0
  7 17  1  0  0  0  0
  8 17  2  0  0  0  0
  9 13  1  0  0  0  0
  9 15  2  0  0  0  0
 10 27  2  0  0  0  0
 11 12  2  0  0  0  0
 11 27  1  0  0  0  0
 12 26  1  0  0  0  0
 13 16  2  0  0  0  0
 13 22  1  0  0  0  0
 14 28  1  0  0  0  0
 15 29  1  0  0  0  0
 16 30  1  0  0  0  0
 17 33  1  0  0  0  0
 18 19  2  0  0  0  0
 19 20  1  0  0  0  0
 20 29  1  0  0  0  0
 20 31  2  0  0  0  0
 21 26  1  0  0  0  0
 21 28  1  0  0  0  0
 21 32  2  0  0  0  0
 23 30  1  0  0  0  0
 24 30  1  0  0  0  0
 25 33  1  0  0  0  0
 26 29  1  0  0  0  0
  1 34  1  0  0  0  0
  2 35  1  0  0  0  0
  3 36  1  0  0  0  0
  4 37  1  0  0  0  0
  5 38  1  0  0  0  0
  6 39  1  0  0  0  0
  7 40  1  0  0  0  0
  8 41  1  0  0  0  0
  9 42  1  0  0  0  0
 10 43  1  0  0  0  0
 11 44  1  0  0  0  0
 18 45  1  0  0  0  0
 18 46  1  0  0  0  0
 19 47  1  0  0  0  0
 22 48  1  0  0  0  0
 22 49  1  0  0  0  0
 22 50  1  0  0  0  0
 23 51  1  0  0  0  0
 23 52  1  0  0  0  0
 23 53  1  0  0  0  0
 24 54  1  0  0  0  0
 24 55  1  0  0  0  0
 24 56  1  0  0  0  0
 25 57  1  0  0  0  0
 25 58  1  0  0  0  0
 25 59  1  0  0  0  0
 26 60  1  0  0  0  0
 28 61  1  0  0  0  0
M  END
> <series>
3-aminopyridine-like

> <r_inhibition_at_20_uM>
0.0

> <r_inhibition_at_50_uM>
2.05

> <r_IC50>

> <f_inhibition_at_20_uM>
2.561375

> <f_inhibition_at_50_uM>
7.050717500000001

> <f_avg_IC50>

> <f_avg_pIC50>

> <ASSAYED>
True

> <Hybrid2>
-8.614297

> <docked_fragment>
x0678

> <Mpro-_dock>
-5.815384

> <site>
active-noncovalent

$$$$
LON-WEI-adc59df6-18
  -OEChem-07042000473D

 62 64  0     1  0  0  0  0  0999 V2000
    5.8482   -4.0793   25.2666 C   0  0  0  0  0  0  0  0  0  0  0  0
    5.5312   -5.3937   24.9237 C   0  0  0  0  0  0  0  0  0  0  0  0
    6.1734    0.6896   19.6534 C   0  0  0  0  0  0  0  0  0  0  0  0
    6.9613    0.0989   20.6351 C   0  0  0  0  0  0  0  0  0  0  0  0
   12.6053   -2.4291   23.3140 C   0  0  0  0  0  0  0  0  0  0  0  0
   13.6829   -0.4338   22.4806 C   0  0  0  0  0  0  0  0  0  0  0  0
    6.6046   -3.2944   24.3963 C   0  0  0  0  0  0  0  0  0  0  0  0
   11.3710   -1.9423   22.8837 C   0  0  0  0  0  0  0  0  0  0  0  0
   12.4486    0.0530   22.0502 C   0  0  0  0  0  0  0  0  0  0  0  0
    5.9708   -5.9232   23.7104 C   0  0  0  0  0  0  0  0  0  0  0  0
    6.6141    0.6236   18.3414 C   0  0  0  0  0  0  0  0  0  0  0  0
    8.5011   -0.5424   18.9398 C   0  0  0  0  0  0  0  0  0  0  0  0
   13.7612   -1.6749   23.1125 C   0  0  0  0  0  0  0  0  0  0  0  0
    8.1489   -0.5308   20.2798 C   0  0  0  0  0  0  0  0  0  0  0  0
   11.2927   -0.7012   22.2518 C   0  0  0  0  0  0  0  0  0  0  0  0
    7.0442   -3.8240   23.1831 C   0  0  0  0  0  0  0  0  0  0  0  0
    6.7274   -5.1384   22.8401 C   0  0  0  0  0  0  0  0  0  0  0  0
   10.6428    3.3605   22.4583 C   0  0  0  0  0  0  0  0  0  0  0  0
   10.3754    2.0862   22.7613 C   0  0  0  0  0  0  0  0  0  0  0  0
    9.7422    1.1890   21.7507 C   0  0  0  0  0  0  0  0  0  0  0  0
    8.2092   -1.6953   22.5066 C   0  0  0  0  0  0  0  0  0  0  0  0
   15.4263   -3.5510   22.8817 C   0  0  0  0  0  0  0  0  0  0  0  0
   15.0873   -2.4382   25.1139 C   0  0  0  0  0  0  0  0  0  0  0  0
   16.3053   -1.2620   23.2934 C   0  0  0  0  0  0  0  0  0  0  0  0
    8.4119   -6.3338   21.6615 C   0  0  0  0  0  0  0  0  0  0  0  0
    9.0278   -1.1833   21.3241 C   0  0  2  0  0  0  0  0  0  0  0  0
   15.1218   -2.2116   23.5869 C   0  0  0  0  0  0  0  0  0  0  0  0
    7.7617    0.0207   17.9579 N   0  0  0  0  0  0  0  0  0  0  0  0
    7.8114   -3.0155   22.3111 N   0  0  0  0  0  0  0  0  0  0  0  0
   10.0583   -0.2142   21.8211 N   0  0  0  0  0  0  0  0  0  0  0  0
    9.0079    1.6831   20.8948 O   0  0  0  0  0  0  0  0  0  0  0  0
    7.9567   -0.9812   23.4733 O   0  0  0  0  0  0  0  0  0  0  0  0
    7.1472   -5.6753   21.6596 O   0  0  0  0  0  0  0  0  0  0  0  0
    5.5053   -3.6671   26.2111 H   0  0  0  0  0  0  0  0  0  0  0  0
    4.9416   -6.0045   25.6010 H   0  0  0  0  0  0  0  0  0  0  0  0
    5.2437    1.1858   19.9071 H   0  0  0  0  0  0  0  0  0  0  0  0
    6.6422    0.1340   21.6732 H   0  0  0  0  0  0  0  0  0  0  0  0
   12.6567   -3.3961   23.8075 H   0  0  0  0  0  0  0  0  0  0  0  0
   14.5784    0.1608   22.3201 H   0  0  0  0  0  0  0  0  0  0  0  0
    6.8452   -2.2715   24.6746 H   0  0  0  0  0  0  0  0  0  0  0  0
   10.4767   -2.5388   23.0457 H   0  0  0  0  0  0  0  0  0  0  0  0
   12.3988    1.0220   21.5598 H   0  0  0  0  0  0  0  0  0  0  0  0
    5.7201   -6.9479   23.4495 H   0  0  0  0  0  0  0  0  0  0  0  0
    6.0357    1.0693   17.5389 H   0  0  0  0  0  0  0  0  0  0  0  0
    9.4164   -1.0188   18.6026 H   0  0  0  0  0  0  0  0  0  0  0  0
   11.1244    4.0023   23.1886 H   0  0  0  0  0  0  0  0  0  0  0  0
   10.3907    3.7968   21.4981 H   0  0  0  0  0  0  0  0  0  0  0  0
   10.6587    1.6849   23.7274 H   0  0  0  0  0  0  0  0  0  0  0  0
   16.3930   -3.9561   23.2030 H   0  0  0  0  0  0  0  0  0  0  0  0
   14.6715   -4.3148   23.0985 H   0  0  0  0  0  0  0  0  0  0  0  0
   15.4629   -3.4242   21.7932 H   0  0  0  0  0  0  0  0  0  0  0  0
   16.0389   -2.8217   25.4978 H   0  0  0  0  0  0  0  0  0  0  0  0
   14.8803   -1.5032   25.6477 H   0  0  0  0  0  0  0  0  0  0  0  0
   14.3075   -3.1586   25.3882 H   0  0  0  0  0  0  0  0  0  0  0  0
   17.2512   -1.6878   23.6495 H   0  0  0  0  0  0  0  0  0  0  0  0
   16.4194   -1.0793   22.2185 H   0  0  0  0  0  0  0  0  0  0  0  0
   16.1798   -0.2943   23.7930 H   0  0  0  0  0  0  0  0  0  0  0  0
    8.6263   -6.7154   20.6602 H   0  0  0  0  0  0  0  0  0  0  0  0
    8.3941   -7.1567   22.3805 H   0  0  0  0  0  0  0  0  0  0  0  0
    9.1851   -5.6177   21.9493 H   0  0  0  0  0  0  0  0  0  0  0  0
    9.5703   -2.0296   20.8850 H   0  0  0  0  0  0  0  0  0  0  0  0
    8.1070   -3.4496   21.4392 H   0  0  0  0  0  0  0  0  0  0  0  0
  1  2  1  0  0  0  0
  1  7  2  0  0  0  0
  2 10  2  0  0  0  0
  3  4  2  0  0  0  0
  3 11  1  0  0  0  0
  4 14  1  0  0  0  0
  5  8  2  0  0  0  0
  5 13  1  0  0  0  0
  6  9  1  0  0  0  0
  6 13  2  0  0  0  0
  7 16  1  0  0  0  0
  8 15  1  0  0  0  0
  9 15  2  0  0  0  0
 10 17  1  0  0  0  0
 11 28  2  0  0  0  0
 12 14  2  0  0  0  0
 12 28  1  0  0  0  0
 13 27  1  0  0  0  0
 14 26  1  0  0  0  0
 15 30  1  0  0  0  0
 16 17  2  0  0  0  0
 16 29  1  0  0  0  0
 17 33  1  0  0  0  0
 18 19  2  0  0  0  0
 19 20  1  0  0  0  0
 20 30  1  0  0  0  0
 20 31  2  0  0  0  0
 21 26  1  0  0  0  0
 21 29  1  0  0  0  0
 21 32  2  0  0  0  0
 22 27  1  0  0  0  0
 23 27  1  0  0  0  0
 24 27  1  0  0  0  0
 25 33  1  0  0  0  0
 26 30  1  0  0  0  0
  1 34  1  0  0  0  0
  2 35  1  0  0  0  0
  3 36  1  0  0  0  0
  4 37  1  0  0  0  0
  5 38  1  0  0  0  0
  6 39  1  0  0  0  0
  7 40  1  0  0  0  0
  8 41  1  0  0  0  0
  9 42  1  0  0  0  0
 10 43  1  0  0  0  0
 11 44  1  0  0  0  0
 12 45  1  0  0  0  0
 18 46  1  0  0  0  0
 18 47  1  0  0  0  0
 19 48  1  0  0  0  0
 22 49  1  0  0  0  0
 22 50  1  0  0  0  0
 22 51  1  0  0  0  0
 23 52  1  0  0  0  0
 23 53  1  0  0  0  0
 23 54  1  0  0  0  0
 24 55  1  0  0  0  0
 24 56  1  0  0  0  0
 24 57  1  0  0  0  0
 25 58  1  0  0  0  0
 25 59  1  0  0  0  0
 25 60  1  0  0  0  0
 26 61  1  0  0  0  0
 29 62  1  0  0  0  0
M  END
> <series>
3-aminopyridine-like

> <r_inhibition_at_20_uM>
0.0

> <r_inhibition_at_50_uM>
25.42037351920504

> <r_IC50>

> <f_inhibition_at_20_uM>
26.26619

> <f_inhibition_at_50_uM>
44.234359999999995

> <f_avg_IC50>

> <f_avg_pIC50>

> <ASSAYED>
True

> <Hybrid2>
-8.612214

> <docked_fragment>
x0678

> <Mpro-_dock>
-6.108035

> <site>
active-noncovalent

$$$$
LON-WEI-b8d98729-13
  -OEChem-07042000473D

 57 59  0     1  0  0  0  0  0999 V2000
    5.9897   -4.0819   25.0406 C   0  0  0  0  0  0  0  0  0  0  0  0
    5.7364   -5.4068   24.6858 C   0  0  0  0  0  0  0  0  0  0  0  0
    6.3403    0.7422   19.5005 C   0  0  0  0  0  0  0  0  0  0  0  0
    7.1096    0.1732   20.5094 C   0  0  0  0  0  0  0  0  0  0  0  0
    6.7509   -3.2684   24.2012 C   0  0  0  0  0  0  0  0  0  0  0  0
   11.4866   -1.7924   22.9109 C   0  0  0  0  0  0  0  0  0  0  0  0
   12.7085   -2.2741   23.3805 C   0  0  0  0  0  0  0  0  0  0  0  0
    6.2444   -5.9184   23.4917 C   0  0  0  0  0  0  0  0  0  0  0  0
   12.5690    0.2395   22.1784 C   0  0  0  0  0  0  0  0  0  0  0  0
    6.8422    0.7162   18.2093 C   0  0  0  0  0  0  0  0  0  0  0  0
    8.7522   -0.3714   18.8780 C   0  0  0  0  0  0  0  0  0  0  0  0
    8.3399   -0.3963   20.2006 C   0  0  0  0  0  0  0  0  0  0  0  0
   13.7910   -0.2421   22.6481 C   0  0  0  0  0  0  0  0  0  0  0  0
   11.4169   -0.5356   22.3098 C   0  0  0  0  0  0  0  0  0  0  0  0
   13.8607   -1.4989   23.2491 C   0  0  0  0  0  0  0  0  0  0  0  0
    7.2589   -3.7799   23.0071 C   0  0  0  0  0  0  0  0  0  0  0  0
    7.0057   -5.1049   22.6523 C   0  0  0  0  0  0  0  0  0  0  0  0
   10.7918    3.4300   22.6976 C   0  0  0  0  0  0  0  0  0  0  0  0
   10.4659    2.1490   22.8971 C   0  0  0  0  0  0  0  0  0  0  0  0
    9.8602    1.3457   21.7948 C   0  0  0  0  0  0  0  0  0  0  0  0
    8.3535   -1.5903   22.4124 C   0  0  0  0  0  0  0  0  0  0  0  0
   15.0092    0.6094   22.4955 C   0  0  0  0  0  0  0  0  0  0  0  0
   15.9489   -2.7842   22.8650 C   0  0  0  0  0  0  0  0  0  0  0  0
   15.5095   -1.7321   25.0895 C   0  0  0  0  0  0  0  0  0  0  0  0
    9.2000   -1.0237   21.2753 C   0  0  2  0  0  0  0  0  0  0  0  0
    8.0326    0.1721   17.8708 N   0  0  0  0  0  0  0  0  0  0  0  0
    8.0264   -2.9242   22.1817 N   0  0  0  0  0  0  0  0  0  0  0  0
   10.1439   -0.0344   21.8215 N   0  0  0  0  0  0  0  0  0  0  0  0
   15.0891   -2.0028   23.7300 N   0  0  0  0  0  0  0  0  0  0  0  0
    9.1781    1.9209   20.9462 O   0  0  0  0  0  0  0  0  0  0  0  0
    8.0249   -0.9032   23.3758 O   0  0  0  0  0  0  0  0  0  0  0  0
    7.6751   -5.8538   21.0415 Br  0  0  0  0  0  0  0  0  0  0  0  0
    5.5941   -3.6839   25.9705 H   0  0  0  0  0  0  0  0  0  0  0  0
    5.1435   -6.0399   25.3395 H   0  0  0  0  0  0  0  0  0  0  0  0
    5.3781    1.1916   19.7179 H   0  0  0  0  0  0  0  0  0  0  0  0
    6.7428    0.1780   21.5322 H   0  0  0  0  0  0  0  0  0  0  0  0
    6.9406   -2.2375   24.4899 H   0  0  0  0  0  0  0  0  0  0  0  0
   10.5954   -2.4056   23.0182 H   0  0  0  0  0  0  0  0  0  0  0  0
   12.7512   -3.2556   23.8460 H   0  0  0  0  0  0  0  0  0  0  0  0
    6.0362   -6.9533   23.2323 H   0  0  0  0  0  0  0  0  0  0  0  0
   12.5159    1.2197   21.7094 H   0  0  0  0  0  0  0  0  0  0  0  0
    6.2806    1.1472   17.3870 H   0  0  0  0  0  0  0  0  0  0  0  0
    9.7029   -0.8005   18.5768 H   0  0  0  0  0  0  0  0  0  0  0  0
   11.2532    4.0031   23.4951 H   0  0  0  0  0  0  0  0  0  0  0  0
   10.6079    3.9390   21.7579 H   0  0  0  0  0  0  0  0  0  0  0  0
   10.6818    1.6735   23.8468 H   0  0  0  0  0  0  0  0  0  0  0  0
   15.1344    1.2529   23.3737 H   0  0  0  0  0  0  0  0  0  0  0  0
   15.9100   -0.0056   22.3807 H   0  0  0  0  0  0  0  0  0  0  0  0
   14.9393    1.2438   21.6035 H   0  0  0  0  0  0  0  0  0  0  0  0
   16.8516   -3.0834   23.4177 H   0  0  0  0  0  0  0  0  0  0  0  0
   15.4109   -3.6825   22.5280 H   0  0  0  0  0  0  0  0  0  0  0  0
   16.2370   -2.1802   21.9920 H   0  0  0  0  0  0  0  0  0  0  0  0
   16.4852   -2.2058   25.2734 H   0  0  0  0  0  0  0  0  0  0  0  0
   15.5960   -0.6455   25.2369 H   0  0  0  0  0  0  0  0  0  0  0  0
   14.7664   -2.1393   25.7909 H   0  0  0  0  0  0  0  0  0  0  0  0
    9.8002   -1.8376   20.8505 H   0  0  0  0  0  0  0  0  0  0  0  0
    8.3807   -3.3311   21.3187 H   0  0  0  0  0  0  0  0  0  0  0  0
  1  2  1  0  0  0  0
  1  5  2  0  0  0  0
  2  8  2  0  0  0  0
  3  4  2  0  0  0  0
  3 10  1  0  0  0  0
  4 12  1  0  0  0  0
  5 16  1  0  0  0  0
  6  7  2  0  0  0  0
  6 14  1  0  0  0  0
  7 15  1  0  0  0  0
  8 17  1  0  0  0  0
  9 13  1  0  0  0  0
  9 14  2  0  0  0  0
 10 26  2  0  0  0  0
 11 12  2  0  0  0  0
 11 26  1  0  0  0  0
 12 25  1  0  0  0  0
 13 15  2  0  0  0  0
 13 22  1  0  0  0  0
 14 28  1  0  0  0  0
 15 29  1  0  0  0  0
 16 17  2  0  0  0  0
 16 27  1  0  0  0  0
 17 32  1  0  0  0  0
 18 19  2  0  0  0  0
 19 20  1  0  0  0  0
 20 28  1  0  0  0  0
 20 30  2  0  0  0  0
 21 25  1  0  0  0  0
 21 27  1  0  0  0  0
 21 31  2  0  0  0  0
 23 29  1  0  0  0  0
 24 29  1  0  0  0  0
 25 28  1  0  0  0  0
  1 33  1  0  0  0  0
  2 34  1  0  0  0  0
  3 35  1  0  0  0  0
  4 36  1  0  0  0  0
  5 37  1  0  0  0  0
  6 38  1  0  0  0  0
  7 39  1  0  0  0  0
  8 40  1  0  0  0  0
  9 41  1  0  0  0  0
 10 42  1  0  0  0  0
 11 43  1  0  0  0  0
 18 44  1  0  0  0  0
 18 45  1  0  0  0  0
 19 46  1  0  0  0  0
 22 47  1  0  0  0  0
 22 48  1  0  0  0  0
 22 49  1  0  0  0  0
 23 50  1  0  0  0  0
 23 51  1  0  0  0  0
 23 52  1  0  0  0  0
 24 53  1  0  0  0  0
 24 54  1  0  0  0  0
 24 55  1  0  0  0  0
 25 56  1  0  0  0  0
 27 57  1  0  0  0  0
M  END
> <series>
3-aminopyridine-like

> <r_inhibition_at_20_uM>
0.0

> <r_inhibition_at_50_uM>

> <r_IC50>

> <f_inhibition_at_20_uM>
2.8423830000000003

> <f_inhibition_at_50_uM>
8.125432

> <f_avg_IC50>

> <f_avg_pIC50>

> <ASSAYED>
True

> <Hybrid2>
-8.591227

> <docked_fragment>
x0678

> <Mpro-_dock>
-7.198636

> <site>
active-noncovalent

$$$$
JAN-GHE-5a013bed-5
  -OEChem-07042000473D

 25 26  0     0  0  0  0  0  0999 V2000
   13.0528   -0.4972   24.7203 C   0  0  0  0  0  0  0  0  0  0  0  0
   11.7190   -0.1344   24.5335 C   0  0  0  0  0  0  0  0  0  0  0  0
   13.8092   -0.9538   23.6408 C   0  0  0  0  0  0  0  0  0  0  0  0
   11.8978   -0.6848   22.1878 C   0  0  0  0  0  0  0  0  0  0  0  0
    6.8585    0.9349   19.3375 C   0  0  0  0  0  0  0  0  0  0  0  0
    8.4252   -0.3162   18.5071 C   0  0  0  0  0  0  0  0  0  0  0  0
   11.1415   -0.2282   23.2672 C   0  0  0  0  0  0  0  0  0  0  0  0
   13.2317   -1.0476   22.3746 C   0  0  0  0  0  0  0  0  0  0  0  0
    9.4083    0.6980   21.6751 C   0  0  0  0  0  0  0  0  0  0  0  0
    9.7149    0.1587   23.0685 C   0  0  0  0  0  0  0  0  0  0  0  0
    6.7014    0.9192   18.0331 N   0  0  0  0  0  0  0  0  0  0  0  0
    7.6982    0.1233   17.5048 N   0  0  0  0  0  0  0  0  0  0  0  0
    7.9322    0.1702   19.6798 N   0  0  0  0  0  0  0  0  0  0  0  0
    8.4526   -0.0798   21.0412 N   0  0  0  0  0  0  0  0  0  0  0  0
    9.9627    1.6962   21.2289 O   0  0  0  0  0  0  0  0  0  0  0  0
   14.1650   -1.6121   21.0434 Cl  0  0  0  0  0  0  0  0  0  0  0  0
   13.5021   -0.4241   25.7065 H   0  0  0  0  0  0  0  0  0  0  0  0
   11.1372    0.2202   25.3803 H   0  0  0  0  0  0  0  0  0  0  0  0
   14.8476   -1.2333   23.8012 H   0  0  0  0  0  0  0  0  0  0  0  0
   11.4431   -0.7557   21.2024 H   0  0  0  0  0  0  0  0  0  0  0  0
    6.2451    1.4644   20.0528 H   0  0  0  0  0  0  0  0  0  0  0  0
    9.2880   -0.9638   18.4412 H   0  0  0  0  0  0  0  0  0  0  0  0
    9.4185    0.9275   23.8012 H   0  0  0  0  0  0  0  0  0  0  0  0
    9.0566   -0.7057   23.2562 H   0  0  0  0  0  0  0  0  0  0  0  0
    8.0830   -0.8792   21.5481 H   0  0  0  0  0  0  0  0  0  0  0  0
  1  2  2  0  0  0  0
  1  3  1  0  0  0  0
  2  7  1  0  0  0  0
  3  8  2  0  0  0  0
  4  7  2  0  0  0  0
  4  8  1  0  0  0  0
  5 11  2  0  0  0  0
  5 13  1  0  0  0  0
  6 12  2  0  0  0  0
  6 13  1  0  0  0  0
  7 10  1  0  0  0  0
  8 16  1  0  0  0  0
  9 10  1  0  0  0  0
  9 14  1  0  0  0  0
  9 15  2  0  0  0  0
 11 12  1  0  0  0  0
 13 14  1  0  0  0  0
  1 17  1  0  0  0  0
  2 18  1  0  0  0  0
  3 19  1  0  0  0  0
  4 20  1  0  0  0  0
  5 21  1  0  0  0  0
  6 22  1  0  0  0  0
 10 23  1  0  0  0  0
 10 24  1  0  0  0  0
 14 25  1  0  0  0  0
M  END
> <series>
3-aminopyridine-like

> <r_inhibition_at_20_uM>

> <r_inhibition_at_50_uM>
0.0

> <r_IC50>

> <f_inhibition_at_20_uM>
-9.883389999999999

> <f_inhibition_at_50_uM>
-21.628234000000006

> <f_avg_IC50>

> <f_avg_pIC50>

> <ASSAYED>
True

> <Hybrid2>
-8.528146

> <docked_fragment>
x0678

> <Mpro-_dock>
-6.658324

> <site>
active-noncovalent

$$$$
LON-WEI-b8d98729-39
  -OEChem-07042000473D

 58 60  0     1  0  0  0  0  0999 V2000
    5.5682   -5.7881   24.3278 C   0  0  0  0  0  0  0  0  0  0  0  0
    5.8122    0.5383   19.3094 C   0  0  0  0  0  0  0  0  0  0  0  0
    5.1677   -5.5272   23.0174 C   0  0  0  0  0  0  0  0  0  0  0  0
    6.6782   -5.1332   24.8614 C   0  0  0  0  0  0  0  0  0  0  0  0
    6.5944    0.0151   20.3329 C   0  0  0  0  0  0  0  0  0  0  0  0
   12.7682   -1.8970   22.2384 C   0  0  0  0  0  0  0  0  0  0  0  0
   12.7391   -0.0283   23.7695 C   0  0  0  0  0  0  0  0  0  0  0  0
   11.5254   -1.5073   21.7392 C   0  0  0  0  0  0  0  0  0  0  0  0
   11.4963    0.3614   23.2703 C   0  0  0  0  0  0  0  0  0  0  0  0
    6.3527    0.5752   18.0341 C   0  0  0  0  0  0  0  0  0  0  0  0
    8.3233   -0.3676   18.7452 C   0  0  0  0  0  0  0  0  0  0  0  0
   13.3750   -1.1575   23.2536 C   0  0  0  0  0  0  0  0  0  0  0  0
    7.8753   -0.4486   20.0538 C   0  0  0  0  0  0  0  0  0  0  0  0
    5.8773   -4.6115   22.2405 C   0  0  0  0  0  0  0  0  0  0  0  0
    7.3878   -4.2175   24.0845 C   0  0  0  0  0  0  0  0  0  0  0  0
   10.8894   -0.3782   22.2551 C   0  0  0  0  0  0  0  0  0  0  0  0
    6.9874   -3.9566   22.7740 C   0  0  0  0  0  0  0  0  0  0  0  0
   10.1718    3.5808   22.2199 C   0  0  0  0  0  0  0  0  0  0  0  0
   10.3149    2.3743   21.6624 C   0  0  0  0  0  0  0  0  0  0  0  0
    9.2023    1.3813   21.7206 C   0  0  0  0  0  0  0  0  0  0  0  0
    7.9192   -1.6763   22.2467 C   0  0  0  0  0  0  0  0  0  0  0  0
    5.4240   -4.3531   20.8400 C   0  0  0  0  0  0  0  0  0  0  0  0
    9.8909   -4.1219   24.1947 C   0  0  0  0  0  0  0  0  0  0  0  0
    8.5723   -3.5320   24.6848 C   0  0  0  0  0  0  0  0  0  0  0  0
    8.7508   -1.0239   21.1451 C   0  0  2  0  0  0  0  0  0  0  0  0
   14.7038   -1.5742   23.7874 C   0  0  0  0  0  0  0  0  0  0  0  0
    7.5925    0.1342   17.7245 N   0  0  0  0  0  0  0  0  0  0  0  0
    7.7077   -3.0279   21.9859 N   0  0  0  0  0  0  0  0  0  0  0  0
    9.5953    0.0280   21.7352 N   0  0  0  0  0  0  0  0  0  0  0  0
    8.0412    1.7906   21.7405 O   0  0  0  0  0  0  0  0  0  0  0  0
    7.5080   -1.0347   23.2098 O   0  0  0  0  0  0  0  0  0  0  0  0
   15.2067   -2.6951   23.1901 F   0  0  0  0  0  0  0  0  0  0  0  0
   15.6750   -0.6254   23.6382 F   0  0  0  0  0  0  0  0  0  0  0  0
   14.6687   -1.8554   25.1225 F   0  0  0  0  0  0  0  0  0  0  0  0
    5.0155   -6.5010   24.9329 H   0  0  0  0  0  0  0  0  0  0  0  0
    4.8109    0.9053   19.5036 H   0  0  0  0  0  0  0  0  0  0  0  0
    4.3018   -6.0430   22.6107 H   0  0  0  0  0  0  0  0  0  0  0  0
    6.9814   -5.3434   25.8837 H   0  0  0  0  0  0  0  0  0  0  0  0
    6.1982   -0.0274   21.3438 H   0  0  0  0  0  0  0  0  0  0  0  0
   13.2555   -2.7794   21.8321 H   0  0  0  0  0  0  0  0  0  0  0  0
   13.2043    0.5532   24.5611 H   0  0  0  0  0  0  0  0  0  0  0  0
   11.0619   -2.0909   20.9477 H   0  0  0  0  0  0  0  0  0  0  0  0
   11.0090    1.2424   23.6803 H   0  0  0  0  0  0  0  0  0  0  0  0
    5.7828    0.9743   17.2014 H   0  0  0  0  0  0  0  0  0  0  0  0
    9.3140   -0.7139   18.4672 H   0  0  0  0  0  0  0  0  0  0  0  0
   10.9749    4.3074   22.1546 H   0  0  0  0  0  0  0  0  0  0  0  0
    9.2739    3.8745   22.7523 H   0  0  0  0  0  0  0  0  0  0  0  0
   11.2229    2.1267   21.1250 H   0  0  0  0  0  0  0  0  0  0  0  0
    4.7005   -3.5304   20.8217 H   0  0  0  0  0  0  0  0  0  0  0  0
    6.2695   -4.0908   20.1928 H   0  0  0  0  0  0  0  0  0  0  0  0
    4.9532   -5.2437   20.4063 H   0  0  0  0  0  0  0  0  0  0  0  0
    9.9472   -5.1941   24.4112 H   0  0  0  0  0  0  0  0  0  0  0  0
   10.7382   -3.6321   24.6847 H   0  0  0  0  0  0  0  0  0  0  0  0
   10.0027   -3.9912   23.1130 H   0  0  0  0  0  0  0  0  0  0  0  0
    8.5483   -2.4563   24.4522 H   0  0  0  0  0  0  0  0  0  0  0  0
    8.5332   -3.5956   25.7831 H   0  0  0  0  0  0  0  0  0  0  0  0
    9.4270   -1.7796   20.7269 H   0  0  0  0  0  0  0  0  0  0  0  0
    8.1191   -3.3899   21.1282 H   0  0  0  0  0  0  0  0  0  0  0  0
  1  3  1  0  0  0  0
  1  4  2  0  0  0  0
  2  5  2  0  0  0  0
  2 10  1  0  0  0  0
  3 14  2  0  0  0  0
  4 15  1  0  0  0  0
  5 13  1  0  0  0  0
  6  8  2  0  0  0  0
  6 12  1  0  0  0  0
  7  9  1  0  0  0  0
  7 12  2  0  0  0  0
  8 16  1  0  0  0  0
  9 16  2  0  0  0  0
 10 27  2  0  0  0  0
 11 13  2  0  0  0  0
 11 27  1  0  0  0  0
 12 26  1  0  0  0  0
 13 25  1  0  0  0  0
 14 17  1  0  0  0  0
 14 22  1  0  0  0  0
 15 17  2  0  0  0  0
 15 24  1  0  0  0  0
 16 29  1  0  0  0  0
 17 28  1  0  0  0  0
 18 19  2  0  0  0  0
 19 20  1  0  0  0  0
 20 29  1  0  0  0  0
 20 30  2  0  0  0  0
 21 25  1  0  0  0  0
 21 28  1  0  0  0  0
 21 31  2  0  0  0  0
 23 24  1  0  0  0  0
 25 29  1  0  0  0  0
 26 32  1  0  0  0  0
 26 33  1  0  0  0  0
 26 34  1  0  0  0  0
  1 35  1  0  0  0  0
  2 36  1  0  0  0  0
  3 37  1  0  0  0  0
  4 38  1  0  0  0  0
  5 39  1  0  0  0  0
  6 40  1  0  0  0  0
  7 41  1  0  0  0  0
  8 42  1  0  0  0  0
  9 43  1  0  0  0  0
 10 44  1  0  0  0  0
 11 45  1  0  0  0  0
 18 46  1  0  0  0  0
 18 47  1  0  0  0  0
 19 48  1  0  0  0  0
 22 49  1  0  0  0  0
 22 50  1  0  0  0  0
 22 51  1  0  0  0  0
 23 52  1  0  0  0  0
 23 53  1  0  0  0  0
 23 54  1  0  0  0  0
 24 55  1  0  0  0  0
 24 56  1  0  0  0  0
 25 57  1  0  0  0  0
 28 58  1  0  0  0  0
M  END
> <series>
3-aminopyridine-like

> <r_inhibition_at_20_uM>
23.933745075

> <r_inhibition_at_50_uM>

> <r_IC50>

> <f_inhibition_at_20_uM>
22.265165000000003

> <f_inhibition_at_50_uM>
38.632575

> <f_avg_IC50>
97.78883490712116

> <f_avg_pIC50>
4.009710728188184

> <ASSAYED>
True

> <Hybrid2>
-8.520301

> <docked_fragment>
x0678

> <Mpro-_dock>
-6.695967

> <site>
active-noncovalent

$$$$
LON-WEI-b8d98729-42
  -OEChem-07042000473D

 66 68  0     1  0  0  0  0  0999 V2000
    5.9961   -5.6547   25.0907 C   0  0  0  0  0  0  0  0  0  0  0  0
    6.2209    0.5567   19.9298 C   0  0  0  0  0  0  0  0  0  0  0  0
    5.5594   -5.4122   23.7884 C   0  0  0  0  0  0  0  0  0  0  0  0
    7.1375   -5.0149   25.5741 C   0  0  0  0  0  0  0  0  0  0  0  0
    7.0239    0.0372   20.9390 C   0  0  0  0  0  0  0  0  0  0  0  0
   12.0247    0.3305   23.7100 C   0  0  0  0  0  0  0  0  0  0  0  0
   13.2740   -0.0770   24.1777 C   0  0  0  0  0  0  0  0  0  0  0  0
   11.9627   -1.5700   22.2196 C   0  0  0  0  0  0  0  0  0  0  0  0
    6.7204    0.5541   18.6374 C   0  0  0  0  0  0  0  0  0  0  0  0
    8.6912   -0.4195   19.3056 C   0  0  0  0  0  0  0  0  0  0  0  0
    8.2841   -0.4622   20.6293 C   0  0  0  0  0  0  0  0  0  0  0  0
    6.2640   -4.5300   22.9694 C   0  0  0  0  0  0  0  0  0  0  0  0
    7.8422   -4.1327   24.7550 C   0  0  0  0  0  0  0  0  0  0  0  0
   13.2120   -1.9775   22.6872 C   0  0  0  0  0  0  0  0  0  0  0  0
   11.3690   -0.4160   22.7310 C   0  0  0  0  0  0  0  0  0  0  0  0
   13.8677   -1.2310   23.6663 C   0  0  0  0  0  0  0  0  0  0  0  0
    7.4054   -3.8902   23.4527 C   0  0  0  0  0  0  0  0  0  0  0  0
   10.7408    3.5571   22.6322 C   0  0  0  0  0  0  0  0  0  0  0  0
   10.8382    2.3360   22.0969 C   0  0  0  0  0  0  0  0  0  0  0  0
    9.7058    1.3708   22.2124 C   0  0  0  0  0  0  0  0  0  0  0  0
    8.3713   -1.6441   22.8460 C   0  0  0  0  0  0  0  0  0  0  0  0
    5.7714   -4.2908   21.5787 C   0  0  0  0  0  0  0  0  0  0  0  0
   13.8255   -3.2169   22.1214 C   0  0  0  0  0  0  0  0  0  0  0  0
   10.3490   -4.0934   24.7831 C   0  0  0  0  0  0  0  0  0  0  0  0
   15.2335   -2.5147   25.2932 C   0  0  0  0  0  0  0  0  0  0  0  0
   16.3436   -1.1660   23.5052 C   0  0  0  0  0  0  0  0  0  0  0  0
    9.0608   -3.4625   25.3020 C   0  0  0  0  0  0  0  0  0  0  0  0
    9.1813   -1.0347   21.7044 C   0  0  2  0  0  0  0  0  0  0  0  0
    7.9392    0.0776   18.2981 N   0  0  0  0  0  0  0  0  0  0  0  0
    8.1207   -2.9955   22.6217 N   0  0  0  0  0  0  0  0  0  0  0  0
   10.0682    0.0094   22.2440 N   0  0  0  0  0  0  0  0  0  0  0  0
   15.1328   -1.6286   24.1518 N   0  0  0  0  0  0  0  0  0  0  0  0
    8.5556    1.8075   22.2604 O   0  0  0  0  0  0  0  0  0  0  0  0
    8.0062   -0.9728   23.8074 O   0  0  0  0  0  0  0  0  0  0  0  0
    5.4474   -6.3414   25.7287 H   0  0  0  0  0  0  0  0  0  0  0  0
    5.2350    0.9512   20.1479 H   0  0  0  0  0  0  0  0  0  0  0  0
    4.6692   -5.9160   23.4210 H   0  0  0  0  0  0  0  0  0  0  0  0
    7.4689   -5.2104   26.5905 H   0  0  0  0  0  0  0  0  0  0  0  0
    6.6598    0.0253   21.9627 H   0  0  0  0  0  0  0  0  0  0  0  0
   11.5715    1.2312   24.1164 H   0  0  0  0  0  0  0  0  0  0  0  0
   13.7752    0.5118   24.9419 H   0  0  0  0  0  0  0  0  0  0  0  0
   11.4520   -2.1532   21.4564 H   0  0  0  0  0  0  0  0  0  0  0  0
    6.1330    0.9486   17.8148 H   0  0  0  0  0  0  0  0  0  0  0  0
    9.6641   -0.7947   19.0037 H   0  0  0  0  0  0  0  0  0  0  0  0
   11.5577    4.2631   22.5253 H   0  0  0  0  0  0  0  0  0  0  0  0
    9.8676    3.8829   23.1865 H   0  0  0  0  0  0  0  0  0  0  0  0
   11.7225    2.0559   21.5363 H   0  0  0  0  0  0  0  0  0  0  0  0
    5.0666   -3.4518   21.5656 H   0  0  0  0  0  0  0  0  0  0  0  0
    6.6012   -4.0621   20.8993 H   0  0  0  0  0  0  0  0  0  0  0  0
    5.2666   -5.1790   21.1800 H   0  0  0  0  0  0  0  0  0  0  0  0
   14.4376   -2.9714   21.2462 H   0  0  0  0  0  0  0  0  0  0  0  0
   14.4594   -3.7185   22.8625 H   0  0  0  0  0  0  0  0  0  0  0  0
   13.0553   -3.9371   21.8193 H   0  0  0  0  0  0  0  0  0  0  0  0
   10.3879   -5.1618   25.0211 H   0  0  0  0  0  0  0  0  0  0  0  0
   11.2227   -3.6134   25.2349 H   0  0  0  0  0  0  0  0  0  0  0  0
   10.4286   -3.9883   23.6957 H   0  0  0  0  0  0  0  0  0  0  0  0
   16.2933   -2.7061   25.5171 H   0  0  0  0  0  0  0  0  0  0  0  0
   14.7537   -2.0456   26.1649 H   0  0  0  0  0  0  0  0  0  0  0  0
   14.7296   -3.4654   25.0648 H   0  0  0  0  0  0  0  0  0  0  0  0
   17.2194   -1.5810   24.0256 H   0  0  0  0  0  0  0  0  0  0  0  0
   16.3489   -1.4980   22.4565 H   0  0  0  0  0  0  0  0  0  0  0  0
   16.3820   -0.0673   23.5421 H   0  0  0  0  0  0  0  0  0  0  0  0
    9.0538   -2.3917   25.0468 H   0  0  0  0  0  0  0  0  0  0  0  0
    9.0560   -3.5020   26.4021 H   0  0  0  0  0  0  0  0  0  0  0  0
    9.8262   -1.8147   21.2814 H   0  0  0  0  0  0  0  0  0  0  0  0
    8.4957   -3.3851   21.7595 H   0  0  0  0  0  0  0  0  0  0  0  0
  1  3  1  0  0  0  0
  1  4  2  0  0  0  0
  2  5  2  0  0  0  0
  2  9  1  0  0  0  0
  3 12  2  0  0  0  0
  4 13  1  0  0  0  0
  5 11  1  0  0  0  0
  6  7  2  0  0  0  0
  6 15  1  0  0  0  0
  7 16  1  0  0  0  0
  8 14  1  0  0  0  0
  8 15  2  0  0  0  0
  9 29  2  0  0  0  0
 10 11  2  0  0  0  0
 10 29  1  0  0  0  0
 11 28  1  0  0  0  0
 12 17  1  0  0  0  0
 12 22  1  0  0  0  0
 13 17  2  0  0  0  0
 13 27  1  0  0  0  0
 14 16  2  0  0  0  0
 14 23  1  0  0  0  0
 15 31  1  0  0  0  0
 16 32  1  0  0  0  0
 17 30  1  0  0  0  0
 18 19  2  0  0  0  0
 19 20  1  0  0  0  0
 20 31  1  0  0  0  0
 20 33  2  0  0  0  0
 21 28  1  0  0  0  0
 21 30  1  0  0  0  0
 21 34  2  0  0  0  0
 24 27  1  0  0  0  0
 25 32  1  0  0  0  0
 26 32  1  0  0  0  0
 28 31  1  0  0  0  0
  1 35  1  0  0  0  0
  2 36  1  0  0  0  0
  3 37  1  0  0  0  0
  4 38  1  0  0  0  0
  5 39  1  0  0  0  0
  6 40  1  0  0  0  0
  7 41  1  0  0  0  0
  8 42  1  0  0  0  0
  9 43  1  0  0  0  0
 10 44  1  0  0  0  0
 18 45  1  0  0  0  0
 18 46  1  0  0  0  0
 19 47  1  0  0  0  0
 22 48  1  0  0  0  0
 22 49  1  0  0  0  0
 22 50  1  0  0  0  0
 23 51  1  0  0  0  0
 23 52  1  0  0  0  0
 23 53  1  0  0  0  0
 24 54  1  0  0  0  0
 24 55  1  0  0  0  0
 24 56  1  0  0  0  0
 25 57  1  0  0  0  0
 25 58  1  0  0  0  0
 25 59  1  0  0  0  0
 26 60  1  0  0  0  0
 26 61  1  0  0  0  0
 26 62  1  0  0  0  0
 27 63  1  0  0  0  0
 27 64  1  0  0  0  0
 28 65  1  0  0  0  0
 30 66  1  0  0  0  0
M  END
> <series>
3-aminopyridine-like

> <r_inhibition_at_20_uM>
0.0

> <r_inhibition_at_50_uM>

> <r_IC50>

> <f_inhibition_at_20_uM>
6.402893

> <f_inhibition_at_50_uM>
13.24039

> <f_avg_IC50>

> <f_avg_pIC50>

> <ASSAYED>
True

> <Hybrid2>
-8.426572

> <docked_fragment>
x0678

> <Mpro-_dock>
-6.746121

> <site>
active-noncovalent

$$$$
LON-WEI-d1c9908a-4
  -OEChem-07042000473D

 63 66  0     1  0  0  0  0  0999 V2000
    5.9089    0.6532   19.4825 C   0  0  0  0  0  0  0  0  0  0  0  0
   12.1946   -2.5034   23.3863 C   0  0  0  0  0  0  0  0  0  0  0  0
   13.2729   -0.4231   22.7979 C   0  0  0  0  0  0  0  0  0  0  0  0
    6.6543    0.0381   20.4822 C   0  0  0  0  0  0  0  0  0  0  0  0
   10.9812   -2.0101   22.9069 C   0  0  0  0  0  0  0  0  0  0  0  0
   12.0595    0.0703   22.3184 C   0  0  0  0  0  0  0  0  0  0  0  0
    6.2183   -3.6207   23.9716 C   0  0  0  0  0  0  0  0  0  0  0  0
    5.4431   -4.4998   24.7279 C   0  0  0  0  0  0  0  0  0  0  0  0
    5.7835   -6.2252   23.0713 C   0  0  0  0  0  0  0  0  0  0  0  0
    6.4498    0.7030   18.2079 C   0  0  0  0  0  0  0  0  0  0  0  0
    8.3517   -0.3996   18.8749 C   0  0  0  0  0  0  0  0  0  0  0  0
   13.3405   -1.7099   23.3319 C   0  0  0  0  0  0  0  0  0  0  0  0
    7.9001   -0.5009   20.1809 C   0  0  0  0  0  0  0  0  0  0  0  0
    6.5586   -5.3461   22.3150 C   0  0  0  0  0  0  0  0  0  0  0  0
   10.9136   -0.7233   22.3729 C   0  0  0  0  0  0  0  0  0  0  0  0
    6.7760   -4.0438   22.7651 C   0  0  0  0  0  0  0  0  0  0  0  0
    5.2258   -5.8020   24.2778 C   0  0  0  0  0  0  0  0  0  0  0  0
   10.2295    3.2086   22.9561 C   0  0  0  0  0  0  0  0  0  0  0  0
    9.9131    1.9153   23.0757 C   0  0  0  0  0  0  0  0  0  0  0  0
    9.3506    1.1671   21.9133 C   0  0  0  0  0  0  0  0  0  0  0  0
    7.8615   -1.8138   22.3240 C   0  0  0  0  0  0  0  0  0  0  0  0
   14.7117   -2.6412   25.3055 C   0  0  0  0  0  0  0  0  0  0  0  0
   15.3991   -1.3924   24.8494 C   0  0  0  0  0  0  0  0  0  0  0  0
   14.6368   -2.2368   23.8442 C   0  0  0  0  0  0  0  0  0  0  0  0
    7.1432   -5.8268   21.0266 C   0  0  0  0  0  0  0  0  0  0  0  0
   15.4341   -3.0381   22.8527 C   0  0  0  0  0  0  0  0  0  0  0  0
    3.9306   -6.1620   26.2397 C   0  0  0  0  0  0  0  0  0  0  0  0
    8.7349   -1.1771   21.2459 C   0  0  2  0  0  0  0  0  0  0  0  0
    7.6563    0.1906   17.8771 N   0  0  0  0  0  0  0  0  0  0  0  0
    7.5576   -3.1364   22.0113 N   0  0  0  0  0  0  0  0  0  0  0  0
    9.6500   -0.2094   21.8737 N   0  0  0  0  0  0  0  0  0  0  0  0
    8.6875    1.7806   21.0766 O   0  0  0  0  0  0  0  0  0  0  0  0
    7.4958   -1.1837   23.3128 O   0  0  0  0  0  0  0  0  0  0  0  0
    4.4699   -6.6600   25.0162 O   0  0  0  0  0  0  0  0  0  0  0  0
    4.9353    1.0801   19.6944 H   0  0  0  0  0  0  0  0  0  0  0  0
   12.2369   -3.5074   23.8005 H   0  0  0  0  0  0  0  0  0  0  0  0
   14.1605    0.2025   22.7512 H   0  0  0  0  0  0  0  0  0  0  0  0
    6.2568   -0.0169   21.4920 H   0  0  0  0  0  0  0  0  0  0  0  0
   10.0945   -2.6373   22.9545 H   0  0  0  0  0  0  0  0  0  0  0  0
   12.0190    1.0747   21.9046 H   0  0  0  0  0  0  0  0  0  0  0  0
    6.3799   -2.6078   24.3321 H   0  0  0  0  0  0  0  0  0  0  0  0
    5.0118   -4.1644   25.6672 H   0  0  0  0  0  0  0  0  0  0  0  0
    5.6119   -7.2408   22.7229 H   0  0  0  0  0  0  0  0  0  0  0  0
    5.9080    1.1724   17.3933 H   0  0  0  0  0  0  0  0  0  0  0  0
    9.3161   -0.8017   18.5802 H   0  0  0  0  0  0  0  0  0  0  0  0
   10.6597    3.7419   23.7972 H   0  0  0  0  0  0  0  0  0  0  0  0
   10.0678    3.7662   22.0402 H   0  0  0  0  0  0  0  0  0  0  0  0
   10.1061    1.3908   24.0043 H   0  0  0  0  0  0  0  0  0  0  0  0
   15.3324   -3.4870   25.5777 H   0  0  0  0  0  0  0  0  0  0  0  0
   13.8274   -2.5317   25.9229 H   0  0  0  0  0  0  0  0  0  0  0  0
   14.9767   -0.4442   25.1618 H   0  0  0  0  0  0  0  0  0  0  0  0
   16.4824   -1.3975   24.8136 H   0  0  0  0  0  0  0  0  0  0  0  0
    6.4490   -5.6354   20.2005 H   0  0  0  0  0  0  0  0  0  0  0  0
    8.0926   -5.3222   20.8103 H   0  0  0  0  0  0  0  0  0  0  0  0
    7.3541   -6.9025   21.0649 H   0  0  0  0  0  0  0  0  0  0  0  0
   16.3722   -3.3923   23.2976 H   0  0  0  0  0  0  0  0  0  0  0  0
   15.6852   -2.4350   21.9715 H   0  0  0  0  0  0  0  0  0  0  0  0
   14.8698   -3.9151   22.5121 H   0  0  0  0  0  0  0  0  0  0  0  0
    3.3493   -6.9474   26.7289 H   0  0  0  0  0  0  0  0  0  0  0  0
    3.2944   -5.2977   26.0333 H   0  0  0  0  0  0  0  0  0  0  0  0
    4.7523   -5.8594   26.8932 H   0  0  0  0  0  0  0  0  0  0  0  0
    9.3575   -1.9604   20.7962 H   0  0  0  0  0  0  0  0  0  0  0  0
    7.9426   -3.4919   21.1388 H   0  0  0  0  0  0  0  0  0  0  0  0
  1  4  2  0  0  0  0
  1 10  1  0  0  0  0
  2  5  2  0  0  0  0
  2 12  1  0  0  0  0
  3  6  1  0  0  0  0
  3 12  2  0  0  0  0
  4 13  1  0  0  0  0
  5 15  1  0  0  0  0
  6 15  2  0  0  0  0
  7  8  2  0  0  0  0
  7 16  1  0  0  0  0
  8 17  1  0  0  0  0
  9 14  1  0  0  0  0
  9 17  2  0  0  0  0
 10 29  2  0  0  0  0
 11 13  2  0  0  0  0
 11 29  1  0  0  0  0
 12 24  1  0  0  0  0
 13 28  1  0  0  0  0
 14 16  2  0  0  0  0
 14 25  1  0  0  0  0
 15 31  1  0  0  0  0
 16 30  1  0  0  0  0
 17 34  1  0  0  0  0
 18 19  2  0  0  0  0
 19 20  1  0  0  0  0
 20 31  1  0  0  0  0
 20 32  2  0  0  0  0
 21 28  1  0  0  0  0
 21 30  1  0  0  0  0
 21 33  2  0  0  0  0
 22 23  1  0  0  0  0
 22 24  1  0  0  0  0
 23 24  1  0  0  0  0
 24 26  1  0  0  0  0
 27 34  1  0  0  0  0
 28 31  1  0  0  0  0
  1 35  1  0  0  0  0
  2 36  1  0  0  0  0
  3 37  1  0  0  0  0
  4 38  1  0  0  0  0
  5 39  1  0  0  0  0
  6 40  1  0  0  0  0
  7 41  1  0  0  0  0
  8 42  1  0  0  0  0
  9 43  1  0  0  0  0
 10 44  1  0  0  0  0
 11 45  1  0  0  0  0
 18 46  1  0  0  0  0
 18 47  1  0  0  0  0
 19 48  1  0  0  0  0
 22 49  1  0  0  0  0
 22 50  1  0  0  0  0
 23 51  1  0  0  0  0
 23 52  1  0  0  0  0
 25 53  1  0  0  0  0
 25 54  1  0  0  0  0
 25 55  1  0  0  0  0
 26 56  1  0  0  0  0
 26 57  1  0  0  0  0
 26 58  1  0  0  0  0
 27 59  1  0  0  0  0
 27 60  1  0  0  0  0
 27 61  1  0  0  0  0
 28 62  1  0  0  0  0
 30 63  1  0  0  0  0
M  END
> <series>
3-aminopyridine-like

> <r_inhibition_at_20_uM>
0.0

> <r_inhibition_at_50_uM>
0.0

> <r_IC50>

> <f_inhibition_at_20_uM>

> <f_inhibition_at_50_uM>
6.082821

> <f_avg_IC50>

> <f_avg_pIC50>

> <ASSAYED>
True

> <Hybrid2>
-8.421482

> <docked_fragment>
x0678

> <Mpro-_dock>
-3.686753

> <site>
active-noncovalent

$$$$
DAR-DIA-23aa0b97-1
  -OEChem-07042000473D

 33 35  0     0  0  0  0  0  0999 V2000
   14.2953   -1.4069   24.5670 C   0  0  0  0  0  0  0  0  0  0  0  0
   12.0576    1.2688   25.8669 C   0  0  0  0  0  0  0  0  0  0  0  0
    5.5296    1.2694   18.8041 C   0  0  0  0  0  0  0  0  0  0  0  0
   13.1889    0.4792   25.6612 C   0  0  0  0  0  0  0  0  0  0  0  0
    5.8785    0.8992   20.1016 C   0  0  0  0  0  0  0  0  0  0  0  0
   10.8731    0.9803   25.1891 C   0  0  0  0  0  0  0  0  0  0  0  0
   11.9512   -0.8873   24.0997 C   0  0  0  0  0  0  0  0  0  0  0  0
    6.3399    0.8624   17.7528 C   0  0  0  0  0  0  0  0  0  0  0  0
    8.8341   -1.0994   20.8830 C   0  0  0  0  0  0  0  0  0  0  0  0
   13.1357   -0.5988   24.7776 C   0  0  0  0  0  0  0  0  0  0  0  0
    7.0399    0.1289   20.2738 C   0  0  0  0  0  0  0  0  0  0  0  0
    7.7294   -0.4399   21.3773 C   0  0  0  0  0  0  0  0  0  0  0  0
   10.8199   -0.0977   24.3055 C   0  0  0  0  0  0  0  0  0  0  0  0
    7.7594   -0.2092   19.1313 C   0  0  0  0  0  0  0  0  0  0  0  0
    8.4038    0.2864   23.7055 C   0  0  0  0  0  0  0  0  0  0  0  0
    7.3425   -0.3472   22.7993 C   0  0  0  0  0  0  0  0  0  0  0  0
   15.2369   -2.0632   24.3960 N   0  0  0  0  0  0  0  0  0  0  0  0
    7.4674    0.1215   17.8592 N   0  0  0  0  0  0  0  0  0  0  0  0
    8.8426   -0.9526   19.5201 N   0  0  0  0  0  0  0  0  0  0  0  0
    9.6176   -0.3908   23.6190 N   0  0  0  0  0  0  0  0  0  0  0  0
    8.1480    1.2670   24.3970 O   0  0  0  0  0  0  0  0  0  0  0  0
   12.0987    2.1077   26.5556 H   0  0  0  0  0  0  0  0  0  0  0  0
    4.6414    1.8645   18.6205 H   0  0  0  0  0  0  0  0  0  0  0  0
   14.1048    0.7173   26.1965 H   0  0  0  0  0  0  0  0  0  0  0  0
    5.2664    1.2002   20.9455 H   0  0  0  0  0  0  0  0  0  0  0  0
    9.9976    1.6025   25.3573 H   0  0  0  0  0  0  0  0  0  0  0  0
   11.9063   -1.7273   23.4092 H   0  0  0  0  0  0  0  0  0  0  0  0
    6.0828    1.1410   16.7342 H   0  0  0  0  0  0  0  0  0  0  0  0
    9.6150   -1.6605   21.3775 H   0  0  0  0  0  0  0  0  0  0  0  0
    6.4118    0.2411   22.9209 H   0  0  0  0  0  0  0  0  0  0  0  0
    7.1091   -1.3479   23.2128 H   0  0  0  0  0  0  0  0  0  0  0  0
    9.5413   -1.3330   18.8969 H   0  0  0  0  0  0  0  0  0  0  0  0
    9.6429   -1.1896   22.9885 H   0  0  0  0  0  0  0  0  0  0  0  0
  1 10  1  0  0  0  0
  1 17  3  0  0  0  0
  2  4  2  0  0  0  0
  2  6  1  0  0  0  0
  3  5  2  0  0  0  0
  3  8  1  0  0  0  0
  4 10  1  0  0  0  0
  5 11  1  0  0  0  0
  6 13  2  0  0  0  0
  7 10  2  0  0  0  0
  7 13  1  0  0  0  0
  8 18  2  0  0  0  0
  9 12  2  0  0  0  0
  9 19  1  0  0  0  0
 11 12  1  0  0  0  0
 11 14  2  0  0  0  0
 12 16  1  0  0  0  0
 13 20  1  0  0  0  0
 14 18  1  0  0  0  0
 14 19  1  0  0  0  0
 15 16  1  0  0  0  0
 15 20  1  0  0  0  0
 15 21  2  0  0  0  0
  2 22  1  0  0  0  0
  3 23  1  0  0  0  0
  4 24  1  0  0  0  0
  5 25  1  0  0  0  0
  6 26  1  0  0  0  0
  7 27  1  0  0  0  0
  8 28  1  0  0  0  0
  9 29  1  0  0  0  0
 16 30  1  0  0  0  0
 16 31  1  0  0  0  0
 19 32  1  0  0  0  0
 20 33  1  0  0  0  0
M  END
> <series>
3-aminopyridine-like

> <r_inhibition_at_20_uM>
0.0

> <r_inhibition_at_50_uM>

> <r_IC50>

> <f_inhibition_at_20_uM>
2.74304045

> <f_inhibition_at_50_uM>
2.9103890000000003

> <f_avg_IC50>

> <f_avg_pIC50>

> <ASSAYED>
True

> <Hybrid2>
-8.415022

> <docked_fragment>
x0678

> <Mpro-_dock>
-7.617625

> <site>
active-noncovalent

$$$$
NAU-LAT-64f4b287-6
  -OEChem-07042000473D

 34 36  0     0  0  0  0  0  0999 V2000
    4.7827    1.9272   21.5678 C   0  0  0  0  0  0  0  0  0  0  0  0
    4.7313    1.4085   20.2688 C   0  0  0  0  0  0  0  0  0  0  0  0
   12.9748    0.6976   23.4753 C   0  0  0  0  0  0  0  0  0  0  0  0
   11.3206   -0.6824   22.3816 C   0  0  0  0  0  0  0  0  0  0  0  0
    5.9831    1.9623   22.2747 C   0  0  0  0  0  0  0  0  0  0  0  0
   13.8994   -0.3432   23.3903 C   0  0  0  0  0  0  0  0  0  0  0  0
   12.2452   -1.7233   22.2965 C   0  0  0  0  0  0  0  0  0  0  0  0
    6.2225    0.3385   18.4152 C   0  0  0  0  0  0  0  0  0  0  0  0
    7.5680    0.0512   18.4056 C   0  0  0  0  0  0  0  0  0  0  0  0
    5.9125    0.9183   19.6773 C   0  0  0  0  0  0  0  0  0  0  0  0
   11.6853    0.5280   22.9710 C   0  0  0  0  0  0  0  0  0  0  0  0
    7.1008    0.9661   20.4093 C   0  0  0  0  0  0  0  0  0  0  0  0
    7.1673    1.4817   21.7086 C   0  0  0  0  0  0  0  0  0  0  0  0
   13.5347   -1.5537   22.8008 C   0  0  0  0  0  0  0  0  0  0  0  0
    9.6706    1.6518   21.9312 C   0  0  0  0  0  0  0  0  0  0  0  0
   10.6869    1.6522   23.0623 C   0  0  0  0  0  0  0  0  0  0  0  0
    8.0891    0.4331   19.6127 N   0  0  0  0  0  0  0  0  0  0  0  0
    8.3618    1.5225   22.4267 N   0  0  0  0  0  0  0  0  0  0  0  0
   10.0002    1.7520   20.7537 O   0  0  0  0  0  0  0  0  0  0  0  0
   14.4375   -2.5688   22.7167 O   0  0  0  0  0  0  0  0  0  0  0  0
    3.8747    2.3065   22.0291 H   0  0  0  0  0  0  0  0  0  0  0  0
    3.7887    1.3880   19.7295 H   0  0  0  0  0  0  0  0  0  0  0  0
   13.2675    1.6372   23.9362 H   0  0  0  0  0  0  0  0  0  0  0  0
   10.3180   -0.8235   21.9860 H   0  0  0  0  0  0  0  0  0  0  0  0
    5.9881    2.3721   23.2827 H   0  0  0  0  0  0  0  0  0  0  0  0
   14.9026   -0.2049   23.7847 H   0  0  0  0  0  0  0  0  0  0  0  0
   11.9551   -2.6635   21.8359 H   0  0  0  0  0  0  0  0  0  0  0  0
    5.5358    0.1517   17.6009 H   0  0  0  0  0  0  0  0  0  0  0  0
    8.2002   -0.3902   17.6480 H   0  0  0  0  0  0  0  0  0  0  0  0
   10.1498    1.5911   24.0174 H   0  0  0  0  0  0  0  0  0  0  0  0
   11.2158    2.6137   23.0613 H   0  0  0  0  0  0  0  0  0  0  0  0
    9.0589    0.3382   19.8808 H   0  0  0  0  0  0  0  0  0  0  0  0
    8.2741    1.4487   23.4473 H   0  0  0  0  0  0  0  0  0  0  0  0
   14.0372   -3.3399   22.2842 H   0  0  0  0  0  0  0  0  0  0  0  0
  1  2  1  0  0  0  0
  1  5  2  0  0  0  0
  2 10  2  0  0  0  0
  3  6  2  0  0  0  0
  3 11  1  0  0  0  0
  4  7  1  0  0  0  0
  4 11  2  0  0  0  0
  5 13  1  0  0  0  0
  6 14  1  0  0  0  0
  7 14  2  0  0  0  0
  8  9  2  0  0  0  0
  8 10  1  0  0  0  0
  9 17  1  0  0  0  0
 10 12  1  0  0  0  0
 11 16  1  0  0  0  0
 12 13  2  0  0  0  0
 12 17  1  0  0  0  0
 13 18  1  0  0  0  0
 14 20  1  0  0  0  0
 15 16  1  0  0  0  0
 15 18  1  0  0  0  0
 15 19  2  0  0  0  0
  1 21  1  0  0  0  0
  2 22  1  0  0  0  0
  3 23  1  0  0  0  0
  4 24  1  0  0  0  0
  5 25  1  0  0  0  0
  6 26  1  0  0  0  0
  7 27  1  0  0  0  0
  8 28  1  0  0  0  0
  9 29  1  0  0  0  0
 16 30  1  0  0  0  0
 16 31  1  0  0  0  0
 17 32  1  0  0  0  0
 18 33  1  0  0  0  0
 20 34  1  0  0  0  0
M  END
> <series>
3-aminopyridine-like

> <r_inhibition_at_20_uM>

> <r_inhibition_at_50_uM>
0.0

> <r_IC50>

> <f_inhibition_at_20_uM>
-9.566452499999999

> <f_inhibition_at_50_uM>
-4.9045215

> <f_avg_IC50>

> <f_avg_pIC50>

> <ASSAYED>
True

> <Hybrid2>
-8.349189

> <docked_fragment>
x0678

> <Mpro-_dock>
-7.769951

> <site>
active-noncovalent

$$$$
JAG-UCB-a3ef7265-19
  -OEChem-07042000473D

 44 46  0     0  0  0  0  0  0999 V2000
    6.7425    0.3983   18.0108 C   0  0  0  0  0  0  0  0  0  0  0  0
   11.6503   -0.4049   23.2157 C   0  0  0  0  0  0  0  0  0  0  0  0
   12.4536    0.5981   23.7906 C   0  0  0  0  0  0  0  0  0  0  0  0
   12.4633   -1.5110   23.1687 C   0  0  0  0  0  0  0  0  0  0  0  0
    8.2068    0.1311   19.5899 C   0  0  0  0  0  0  0  0  0  0  0  0
   10.0792   -0.1921   21.2435 C   0  0  0  0  0  0  0  0  0  0  0  0
    4.8719    1.5775   20.3621 C   0  0  0  0  0  0  0  0  0  0  0  0
    5.8646    1.3950   21.4672 C   0  0  0  0  0  0  0  0  0  0  0  0
    5.8122    0.3952   20.3359 C   0  0  0  0  0  0  0  0  0  0  0  0
   12.0864    1.9958   24.0780 C   0  0  0  0  0  0  0  0  0  0  0  0
   12.2179   -2.8799   22.6769 C   0  0  0  0  0  0  0  0  0  0  0  0
   14.8479   -2.7086   25.1928 C   0  0  0  0  0  0  0  0  0  0  0  0
   16.1432   -1.1248   23.7027 C   0  0  0  0  0  0  0  0  0  0  0  0
   10.2523   -0.2962   22.7643 C   0  0  0  0  0  0  0  0  0  0  0  0
   14.8611   -1.9429   23.8682 C   0  0  0  0  0  0  0  0  0  0  0  0
    7.9204    0.2795   17.4408 N   0  0  0  0  0  0  0  0  0  0  0  0
   13.6825    0.1673   24.0877 N   0  0  0  0  0  0  0  0  0  0  0  0
    8.8520    0.1095   18.4454 N   0  0  0  0  0  0  0  0  0  0  0  0
    6.8760    0.3108   19.3633 N   0  0  0  0  0  0  0  0  0  0  0  0
   13.6575   -1.1187   23.6980 N   0  0  0  0  0  0  0  0  0  0  0  0
    8.7448   -0.0054   20.8917 N   0  0  0  0  0  0  0  0  0  0  0  0
   11.0423   -0.2737   20.4879 O   0  0  0  0  0  0  0  0  0  0  0  0
    5.7961    0.5430   17.5095 H   0  0  0  0  0  0  0  0  0  0  0  0
    3.8291    1.3852   20.5836 H   0  0  0  0  0  0  0  0  0  0  0  0
    5.0392    2.3870   19.6623 H   0  0  0  0  0  0  0  0  0  0  0  0
    6.7014    2.0814   21.5109 H   0  0  0  0  0  0  0  0  0  0  0  0
    5.4926    1.0798   22.4345 H   0  0  0  0  0  0  0  0  0  0  0  0
    5.3835   -0.5751   20.5605 H   0  0  0  0  0  0  0  0  0  0  0  0
   11.6634    2.0977   25.0918 H   0  0  0  0  0  0  0  0  0  0  0  0
   12.9531    2.6767   24.0089 H   0  0  0  0  0  0  0  0  0  0  0  0
   11.3385    2.3849   23.3644 H   0  0  0  0  0  0  0  0  0  0  0  0
   12.4758   -2.9715   21.6087 H   0  0  0  0  0  0  0  0  0  0  0  0
   12.8087   -3.6311   23.2290 H   0  0  0  0  0  0  0  0  0  0  0  0
   11.1617   -3.1790   22.7927 H   0  0  0  0  0  0  0  0  0  0  0  0
   14.8615   -2.0336   26.0551 H   0  0  0  0  0  0  0  0  0  0  0  0
   15.7235   -3.3622   25.2678 H   0  0  0  0  0  0  0  0  0  0  0  0
   13.9521   -3.3344   25.2730 H   0  0  0  0  0  0  0  0  0  0  0  0
   16.2198   -0.3575   24.4809 H   0  0  0  0  0  0  0  0  0  0  0  0
   16.1550   -0.6211   22.7303 H   0  0  0  0  0  0  0  0  0  0  0  0
   17.0390   -1.7520   23.7637 H   0  0  0  0  0  0  0  0  0  0  0  0
    9.6524   -1.1655   23.1026 H   0  0  0  0  0  0  0  0  0  0  0  0
    9.7548    0.5878   23.2124 H   0  0  0  0  0  0  0  0  0  0  0  0
   14.8462   -2.6886   23.0628 H   0  0  0  0  0  0  0  0  0  0  0  0
    8.0789    0.0381   21.6604 H   0  0  0  0  0  0  0  0  0  0  0  0
  1 16  2  0  0  0  0
  1 19  1  0  0  0  0
  2  3  1  0  0  0  0
  2  4  2  0  0  0  0
  2 14  1  0  0  0  0
  3 10  1  0  0  0  0
  3 17  2  0  0  0  0
  4 11  1  0  0  0  0
  4 20  1  0  0  0  0
  5 18  2  0  0  0  0
  5 19  1  0  0  0  0
  5 21  1  0  0  0  0
  6 14  1  0  0  0  0
  6 21  1  0  0  0  0
  6 22  2  0  0  0  0
  7  8  1  0  0  0  0
  7  9  1  0  0  0  0
  8  9  1  0  0  0  0
  9 19  1  0  0  0  0
 12 15  1  0  0  0  0
 13 15  1  0  0  0  0
 15 20  1  0  0  0  0
 16 18  1  0  0  0  0
 17 20  1  0  0  0  0
  1 23  1  0  0  0  0
  7 24  1  0  0  0  0
  7 25  1  0  0  0  0
  8 26  1  0  0  0  0
  8 27  1  0  0  0  0
  9 28  1  0  0  0  0
 10 29  1  0  0  0  0
 10 30  1  0  0  0  0
 10 31  1  0  0  0  0
 11 32  1  0  0  0  0
 11 33  1  0  0  0  0
 11 34  1  0  0  0  0
 12 35  1  0  0  0  0
 12 36  1  0  0  0  0
 12 37  1  0  0  0  0
 13 38  1  0  0  0  0
 13 39  1  0  0  0  0
 13 40  1  0  0  0  0
 14 41  1  0  0  0  0
 14 42  1  0  0  0  0
 15 43  1  0  0  0  0
 21 44  1  0  0  0  0
M  END
> <series>
3-aminopyridine-like

> <r_inhibition_at_20_uM>

> <r_inhibition_at_50_uM>
5.2868667252392925

> <r_IC50>

> <f_inhibition_at_20_uM>
-5.192722

> <f_inhibition_at_50_uM>
-6.892272

> <f_avg_IC50>

> <f_avg_pIC50>

> <ASSAYED>
True

> <Hybrid2>
-8.347310

> <docked_fragment>
x0678

> <Mpro-_dock>
-4.24514

> <site>
active-noncovalent

$$$$
DAR-DIA-23aa0b97-5
  -OEChem-07042000473D

 28 29  0     0  0  0  0  0  0999 V2000
   13.9840   -1.4398   25.4841 C   0  0  0  0  0  0  0  0  0  0  0  0
   13.9929   -1.8384   21.7831 C   0  0  0  0  0  0  0  0  0  0  0  0
    5.6580    1.3586   19.2112 C   0  0  0  0  0  0  0  0  0  0  0  0
   14.4080   -1.8685   23.1144 C   0  0  0  0  0  0  0  0  0  0  0  0
   12.7283   -1.3478   21.4577 C   0  0  0  0  0  0  0  0  0  0  0  0
    6.5517    1.0957   20.2434 C   0  0  0  0  0  0  0  0  0  0  0  0
   12.2937   -0.9177   23.7950 C   0  0  0  0  0  0  0  0  0  0  0  0
    6.0534    1.0561   17.9182 C   0  0  0  0  0  0  0  0  0  0  0  0
    8.0956    0.2799   18.6288 C   0  0  0  0  0  0  0  0  0  0  0  0
   13.5584   -1.4082   24.1204 C   0  0  0  0  0  0  0  0  0  0  0  0
   11.8787   -0.8875   22.4636 C   0  0  0  0  0  0  0  0  0  0  0  0
    7.7959    0.5462   19.9551 C   0  0  0  0  0  0  0  0  0  0  0  0
   10.0131   -0.2808   20.8605 C   0  0  0  0  0  0  0  0  0  0  0  0
   14.3298   -1.4655   26.5916 N   0  0  0  0  0  0  0  0  0  0  0  0
    7.2535    0.5216   17.5992 N   0  0  0  0  0  0  0  0  0  0  0  0
   10.6145   -0.3958   22.1376 N   0  0  0  0  0  0  0  0  0  0  0  0
    8.7265    0.2679   20.9840 N   0  0  0  0  0  0  0  0  0  0  0  0
   10.5442   -0.6137   19.8059 O   0  0  0  0  0  0  0  0  0  0  0  0
   14.6549   -2.1960   20.9996 H   0  0  0  0  0  0  0  0  0  0  0  0
    4.6826    1.7867   19.4126 H   0  0  0  0  0  0  0  0  0  0  0  0
   15.3963   -2.2544   23.3520 H   0  0  0  0  0  0  0  0  0  0  0  0
   12.4156   -1.3291   20.4167 H   0  0  0  0  0  0  0  0  0  0  0  0
    6.2686    1.3227   21.2679 H   0  0  0  0  0  0  0  0  0  0  0  0
   11.6281   -0.5582   24.5773 H   0  0  0  0  0  0  0  0  0  0  0  0
    5.3930    1.2430   17.0778 H   0  0  0  0  0  0  0  0  0  0  0  0
    9.0508   -0.1493   18.3411 H   0  0  0  0  0  0  0  0  0  0  0  0
   10.0450   -0.0749   22.9278 H   0  0  0  0  0  0  0  0  0  0  0  0
    8.4198    0.4962   21.9263 H   0  0  0  0  0  0  0  0  0  0  0  0
  1 10  1  0  0  0  0
  1 14  3  0  0  0  0
  2  4  2  0  0  0  0
  2  5  1  0  0  0  0
  3  6  2  0  0  0  0
  3  8  1  0  0  0  0
  4 10  1  0  0  0  0
  5 11  2  0  0  0  0
  6 12  1  0  0  0  0
  7 10  2  0  0  0  0
  7 11  1  0  0  0  0
  8 15  2  0  0  0  0
  9 12  2  0  0  0  0
  9 15  1  0  0  0  0
 11 16  1  0  0  0  0
 12 17  1  0  0  0  0
 13 16  1  0  0  0  0
 13 17  1  0  0  0  0
 13 18  2  0  0  0  0
  2 19  1  0  0  0  0
  3 20  1  0  0  0  0
  4 21  1  0  0  0  0
  5 22  1  0  0  0  0
  6 23  1  0  0  0  0
  7 24  1  0  0  0  0
  8 25  1  0  0  0  0
  9 26  1  0  0  0  0
 16 27  1  0  0  0  0
 17 28  1  0  0  0  0
M  END
> <series>
3-aminopyridine-like

> <r_inhibition_at_20_uM>
0.0

> <r_inhibition_at_50_uM>

> <r_IC50>

> <f_inhibition_at_20_uM>
6.212941000000001

> <f_inhibition_at_50_uM>
10.279247

> <f_avg_IC50>

> <f_avg_pIC50>

> <ASSAYED>
True

> <Hybrid2>
-8.328056

> <docked_fragment>
x0678

> <Mpro-_dock>
-5.183513

> <site>
active-noncovalent

$$$$
JAG-UCB-a3ef7265-11
  -OEChem-07042000473D

 35 36  0     0  0  0  0  0  0999 V2000
   10.8762    1.3387   24.8338 C   0  0  0  0  0  0  0  0  0  0  0  0
   10.4126    0.8754   23.6203 C   0  0  0  0  0  0  0  0  0  0  0  0
   12.2801   -0.2702   23.7189 C   0  0  0  0  0  0  0  0  0  0  0  0
    7.8982    0.1403   19.5685 C   0  0  0  0  0  0  0  0  0  0  0  0
    9.1869    1.2346   21.4358 C   0  0  0  0  0  0  0  0  0  0  0  0
   14.0552   -0.7958   22.0105 C   0  0  0  0  0  0  0  0  0  0  0  0
   12.8454   -2.6661   23.1829 C   0  0  0  0  0  0  0  0  0  0  0  0
   14.5457   -1.3141   24.3922 C   0  0  0  0  0  0  0  0  0  0  0  0
    5.9159   -1.3780   19.9766 C   0  0  0  0  0  0  0  0  0  0  0  0
    9.1518    1.2803   22.9675 C   0  0  0  0  0  0  0  0  0  0  0  0
   13.4133   -1.2392   23.3430 C   0  0  0  0  0  0  0  0  0  0  0  0
   11.2165   -0.0470   22.9794 N   0  0  0  0  0  0  0  0  0  0  0  0
    8.5268    0.5693   18.4984 N   0  0  0  0  0  0  0  0  0  0  0  0
    7.8699    0.0024   17.4297 N   0  0  0  0  0  0  0  0  0  0  0  0
    6.8615   -0.7579   17.8384 N   0  0  0  0  0  0  0  0  0  0  0  0
    6.8811   -0.6699   19.1756 N   0  0  0  0  0  0  0  0  0  0  0  0
    8.1758    0.4233   20.9271 N   0  0  0  0  0  0  0  0  0  0  0  0
   10.0298    1.8585   20.7991 O   0  0  0  0  0  0  0  0  0  0  0  0
   12.3779    0.5947   25.1979 S   0  0  0  0  0  0  0  0  0  0  0  0
   10.4221    2.0543   25.5046 H   0  0  0  0  0  0  0  0  0  0  0  0
   14.8679   -1.4713   21.7191 H   0  0  0  0  0  0  0  0  0  0  0  0
   13.3345   -0.7878   21.1854 H   0  0  0  0  0  0  0  0  0  0  0  0
   14.4738    0.2144   22.0913 H   0  0  0  0  0  0  0  0  0  0  0  0
   13.6198   -3.3928   22.9142 H   0  0  0  0  0  0  0  0  0  0  0  0
   12.3875   -3.0162   24.1154 H   0  0  0  0  0  0  0  0  0  0  0  0
   12.0774   -2.6995   22.4011 H   0  0  0  0  0  0  0  0  0  0  0  0
   15.3281   -2.0162   24.0797 H   0  0  0  0  0  0  0  0  0  0  0  0
   15.0271   -0.3398   24.5369 H   0  0  0  0  0  0  0  0  0  0  0  0
   14.1733   -1.6589   25.3639 H   0  0  0  0  0  0  0  0  0  0  0  0
    5.0527   -0.7232   20.1217 H   0  0  0  0  0  0  0  0  0  0  0  0
    5.6178   -2.2952   19.4612 H   0  0  0  0  0  0  0  0  0  0  0  0
    6.3659   -1.6380   20.9388 H   0  0  0  0  0  0  0  0  0  0  0  0
    8.3095    0.6404   23.2967 H   0  0  0  0  0  0  0  0  0  0  0  0
    8.8656    2.3095   23.2610 H   0  0  0  0  0  0  0  0  0  0  0  0
    7.5654   -0.0175   21.6121 H   0  0  0  0  0  0  0  0  0  0  0  0
  1  2  2  0  0  0  0
  1 19  1  0  0  0  0
  2 10  1  0  0  0  0
  2 12  1  0  0  0  0
  3 11  1  0  0  0  0
  3 12  2  0  0  0  0
  3 19  1  0  0  0  0
  4 13  2  0  0  0  0
  4 16  1  0  0  0  0
  4 17  1  0  0  0  0
  5 10  1  0  0  0  0
  5 17  1  0  0  0  0
  5 18  2  0  0  0  0
  6 11  1  0  0  0  0
  7 11  1  0  0  0  0
  8 11  1  0  0  0  0
  9 16  1  0  0  0  0
 13 14  1  0  0  0  0
 14 15  2  0  0  0  0
 15 16  1  0  0  0  0
  1 20  1  0  0  0  0
  6 21  1  0  0  0  0
  6 22  1  0  0  0  0
  6 23  1  0  0  0  0
  7 24  1  0  0  0  0
  7 25  1  0  0  0  0
  7 26  1  0  0  0  0
  8 27  1  0  0  0  0
  8 28  1  0  0  0  0
  8 29  1  0  0  0  0
  9 30  1  0  0  0  0
  9 31  1  0  0  0  0
  9 32  1  0  0  0  0
 10 33  1  0  0  0  0
 10 34  1  0  0  0  0
 17 35  1  0  0  0  0
M  END
> <series>
3-aminopyridine-like

> <r_inhibition_at_20_uM>

> <r_inhibition_at_50_uM>
0.0

> <r_IC50>

> <f_inhibition_at_20_uM>
1.851882

> <f_inhibition_at_50_uM>
5.133212

> <f_avg_IC50>

> <f_avg_pIC50>

> <ASSAYED>
True

> <Hybrid2>
-8.298035

> <docked_fragment>
x0678

> <Mpro-_dock>
-4.192642

> <site>
active-noncovalent

$$$$
LON-WEI-b8d98729-47
  -OEChem-07042000473D

 54 56  0     1  0  0  0  0  0999 V2000
    5.7309    0.0231   19.3374 C   0  0  0  0  0  0  0  0  0  0  0  0
    6.4308    0.2872   20.5095 C   0  0  0  0  0  0  0  0  0  0  0  0
   12.9337    0.2935   23.7316 C   0  0  0  0  0  0  0  0  0  0  0  0
   12.1019   -1.7565   22.7606 C   0  0  0  0  0  0  0  0  0  0  0  0
    7.2771   -0.3779   24.9821 C   0  0  0  0  0  0  0  0  0  0  0  0
    7.4257   -1.6021   22.9046 C   0  0  0  0  0  0  0  0  0  0  0  0
   14.0969   -0.3663   24.1280 C   0  0  0  0  0  0  0  0  0  0  0  0
   13.2651   -2.4162   23.1570 C   0  0  0  0  0  0  0  0  0  0  0  0
    7.0519   -1.5709   25.6690 C   0  0  0  0  0  0  0  0  0  0  0  0
    7.2006   -2.7951   23.5914 C   0  0  0  0  0  0  0  0  0  0  0  0
    6.4448   -0.0156   18.1505 C   0  0  0  0  0  0  0  0  0  0  0  0
    8.4248    0.4410   19.2224 C   0  0  0  0  0  0  0  0  0  0  0  0
    7.8037    0.5013   20.4595 C   0  0  0  0  0  0  0  0  0  0  0  0
   11.9361   -0.4016   23.0479 C   0  0  0  0  0  0  0  0  0  0  0  0
    7.4640   -0.3935   23.5999 C   0  0  0  0  0  0  0  0  0  0  0  0
   14.2627   -1.7211   23.8407 C   0  0  0  0  0  0  0  0  0  0  0  0
    7.0137   -2.7795   24.9736 C   0  0  0  0  0  0  0  0  0  0  0  0
    7.6351    4.4707   23.1450 C   0  0  0  0  0  0  0  0  0  0  0  0
    7.5480    3.2765   22.5505 C   0  0  0  0  0  0  0  0  0  0  0  0
    7.1606    2.0697   23.3384 C   0  0  0  0  0  0  0  0  0  0  0  0
    9.6676   -0.2671   21.9607 C   0  0  0  0  0  0  0  0  0  0  0  0
   15.5018   -3.7501   23.9014 C   0  0  0  0  0  0  0  0  0  0  0  0
    5.2130   -4.8453   25.0270 C   0  0  0  0  0  0  0  0  0  0  0  0
    8.5937    0.7902   21.7169 C   0  0  2  0  0  0  0  0  0  0  0  0
    7.7784    0.1872   18.0625 N   0  0  0  0  0  0  0  0  0  0  0  0
   10.7559    0.2676   22.6456 N   0  0  0  0  0  0  0  0  0  0  0  0
    7.6986    0.8488   22.8846 N   0  0  0  0  0  0  0  0  0  0  0  0
    6.4073    2.2064   24.3028 O   0  0  0  0  0  0  0  0  0  0  0  0
    9.5353   -1.4230   21.5675 O   0  0  0  0  0  0  0  0  0  0  0  0
   15.3977   -2.3650   24.2276 O   0  0  0  0  0  0  0  0  0  0  0  0
    6.7259   -4.3034   25.8514 S   0  0  0  0  0  0  0  0  0  0  0  0
    4.6605   -0.1472   19.3524 H   0  0  0  0  0  0  0  0  0  0  0  0
    5.8988    0.3239   21.4562 H   0  0  0  0  0  0  0  0  0  0  0  0
   12.8151    1.3495   23.9607 H   0  0  0  0  0  0  0  0  0  0  0  0
   11.3311   -2.3083   22.2284 H   0  0  0  0  0  0  0  0  0  0  0  0
    7.3046    0.5583   25.5340 H   0  0  0  0  0  0  0  0  0  0  0  0
    7.5701   -1.6262   21.8273 H   0  0  0  0  0  0  0  0  0  0  0  0
   14.8704    0.1806   24.6603 H   0  0  0  0  0  0  0  0  0  0  0  0
   13.3884   -3.4718   22.9304 H   0  0  0  0  0  0  0  0  0  0  0  0
    6.9083   -1.5387   26.7462 H   0  0  0  0  0  0  0  0  0  0  0  0
    7.1744   -3.7272   23.0323 H   0  0  0  0  0  0  0  0  0  0  0  0
    5.9448   -0.2173   17.2088 H   0  0  0  0  0  0  0  0  0  0  0  0
    9.4940    0.5996   19.1213 H   0  0  0  0  0  0  0  0  0  0  0  0
    7.8944    5.3489   22.5631 H   0  0  0  0  0  0  0  0  0  0  0  0
    7.4614    4.6076   24.2066 H   0  0  0  0  0  0  0  0  0  0  0  0
    7.7136    3.1859   21.4832 H   0  0  0  0  0  0  0  0  0  0  0  0
   16.4546   -4.1407   24.2670 H   0  0  0  0  0  0  0  0  0  0  0  0
   15.4358   -3.8761   22.8178 H   0  0  0  0  0  0  0  0  0  0  0  0
   14.6815   -4.2905   24.3797 H   0  0  0  0  0  0  0  0  0  0  0  0
    4.8791   -5.7959   25.4501 H   0  0  0  0  0  0  0  0  0  0  0  0
    5.3994   -4.9768   23.9583 H   0  0  0  0  0  0  0  0  0  0  0  0
    4.4277   -4.0978   25.1636 H   0  0  0  0  0  0  0  0  0  0  0  0
    9.0819    1.7694   21.6389 H   0  0  0  0  0  0  0  0  0  0  0  0
   10.6954    1.2551   22.8849 H   0  0  0  0  0  0  0  0  0  0  0  0
  1  2  2  0  0  0  0
  1 11  1  0  0  0  0
  2 13  1  0  0  0  0
  3  7  2  0  0  0  0
  3 14  1  0  0  0  0
  4  8  1  0  0  0  0
  4 14  2  0  0  0  0
  5  9  2  0  0  0  0
  5 15  1  0  0  0  0
  6 10  1  0  0  0  0
  6 15  2  0  0  0  0
  7 16  1  0  0  0  0
  8 16  2  0  0  0  0
  9 17  1  0  0  0  0
 10 17  2  0  0  0  0
 11 25  2  0  0  0  0
 12 13  2  0  0  0  0
 12 25  1  0  0  0  0
 13 24  1  0  0  0  0
 14 26  1  0  0  0  0
 15 27  1  0  0  0  0
 16 30  1  0  0  0  0
 17 31  1  0  0  0  0
 18 19  2  0  0  0  0
 19 20  1  0  0  0  0
 20 27  1  0  0  0  0
 20 28  2  0  0  0  0
 21 24  1  0  0  0  0
 21 26  1  0  0  0  0
 21 29  2  0  0  0  0
 22 30  1  0  0  0  0
 23 31  1  0  0  0  0
 24 27  1  0  0  0  0
  1 32  1  0  0  0  0
  2 33  1  0  0  0  0
  3 34  1  0  0  0  0
  4 35  1  0  0  0  0
  5 36  1  0  0  0  0
  6 37  1  0  0  0  0
  7 38  1  0  0  0  0
  8 39  1  0  0  0  0
  9 40  1  0  0  0  0
 10 41  1  0  0  0  0
 11 42  1  0  0  0  0
 12 43  1  0  0  0  0
 18 44  1  0  0  0  0
 18 45  1  0  0  0  0
 19 46  1  0  0  0  0
 22 47  1  0  0  0  0
 22 48  1  0  0  0  0
 22 49  1  0  0  0  0
 23 50  1  0  0  0  0
 23 51  1  0  0  0  0
 23 52  1  0  0  0  0
 24 53  1  0  0  0  0
 26 54  1  0  0  0  0
M  END
> <series>
3-aminopyridine-like

> <r_inhibition_at_20_uM>
0.0

> <r_inhibition_at_50_uM>

> <r_IC50>

> <f_inhibition_at_20_uM>
13.534070000000002

> <f_inhibition_at_50_uM>
27.046190000000003

> <f_avg_IC50>

> <f_avg_pIC50>

> <ASSAYED>
True

> <Hybrid2>
-8.211022

> <docked_fragment>
x0678

> <Mpro-_dock>
-5.546084

> <site>
active-noncovalent

$$$$
LON-WEI-d1c9908a-5
  -OEChem-07042000473D

 60 63  0     1  0  0  0  0  0999 V2000
    5.7599    0.3247   19.3734 C   0  0  0  0  0  0  0  0  0  0  0  0
   12.3467   -2.3505   23.1378 C   0  0  0  0  0  0  0  0  0  0  0  0
   13.2090   -0.1495   22.6390 C   0  0  0  0  0  0  0  0  0  0  0  0
    6.5674   -0.2549   20.3457 C   0  0  0  0  0  0  0  0  0  0  0  0
   11.0880   -1.9611   22.6801 C   0  0  0  0  0  0  0  0  0  0  0  0
   11.9503    0.2399   22.1811 C   0  0  0  0  0  0  0  0  0  0  0  0
    7.0311   -5.6894   21.9304 C   0  0  0  0  0  0  0  0  0  0  0  0
    6.5082   -4.1039   23.6768 C   0  0  0  0  0  0  0  0  0  0  0  0
    6.3572   -6.6872   22.6346 C   0  0  0  0  0  0  0  0  0  0  0  0
    5.8343   -5.1017   24.3809 C   0  0  0  0  0  0  0  0  0  0  0  0
    6.2875    0.4827   18.1019 C   0  0  0  0  0  0  0  0  0  0  0  0
    8.2931   -0.4515   18.7210 C   0  0  0  0  0  0  0  0  0  0  0  0
   13.4072   -1.4447   23.1173 C   0  0  0  0  0  0  0  0  0  0  0  0
    7.8595   -0.6531   20.0214 C   0  0  0  0  0  0  0  0  0  0  0  0
    7.1066   -4.3977   22.4516 C   0  0  0  0  0  0  0  0  0  0  0  0
   10.8897   -0.6659   22.2017 C   0  0  0  0  0  0  0  0  0  0  0  0
    5.7588   -6.3934   23.8598 C   0  0  0  0  0  0  0  0  0  0  0  0
    9.8183    3.1492   22.9529 C   0  0  0  0  0  0  0  0  0  0  0  0
    9.6335    1.8268   23.0169 C   0  0  0  0  0  0  0  0  0  0  0  0
    9.1435    1.0764   21.8236 C   0  0  0  0  0  0  0  0  0  0  0  0
    7.9617   -2.0534   22.1063 C   0  0  0  0  0  0  0  0  0  0  0  0
   14.8733   -2.3173   25.0491 C   0  0  0  0  0  0  0  0  0  0  0  0
   15.4304   -0.9877   24.6469 C   0  0  0  0  0  0  0  0  0  0  0  0
   14.7520   -1.8605   23.6064 C   0  0  0  0  0  0  0  0  0  0  0  0
   15.6210   -2.5350   22.5815 C   0  0  0  0  0  0  0  0  0  0  0  0
    4.5126   -6.9977   25.7930 C   0  0  0  0  0  0  0  0  0  0  0  0
    8.7624   -1.2871   21.0564 C   0  0  2  0  0  0  0  0  0  0  0  0
    7.5377    0.1082   17.7494 N   0  0  0  0  0  0  0  0  0  0  0  0
    7.7903   -3.3852   21.7373 N   0  0  0  0  0  0  0  0  0  0  0  0
    9.5789   -0.2603   21.7251 N   0  0  0  0  0  0  0  0  0  0  0  0
    8.4188    1.6555   21.0140 O   0  0  0  0  0  0  0  0  0  0  0  0
    7.5392   -1.5058   23.1212 O   0  0  0  0  0  0  0  0  0  0  0  0
    5.1013   -7.3671   24.5469 O   0  0  0  0  0  0  0  0  0  0  0  0
    4.7494    0.6425   19.6034 H   0  0  0  0  0  0  0  0  0  0  0  0
   12.4910   -3.3619   23.5086 H   0  0  0  0  0  0  0  0  0  0  0  0
   14.0294    0.5632   22.6191 H   0  0  0  0  0  0  0  0  0  0  0  0
    6.1818   -0.3923   21.3522 H   0  0  0  0  0  0  0  0  0  0  0  0
   10.2687   -2.6754   22.7008 H   0  0  0  0  0  0  0  0  0  0  0  0
   11.8077    1.2519   21.8107 H   0  0  0  0  0  0  0  0  0  0  0  0
    7.4937   -5.9295   20.9764 H   0  0  0  0  0  0  0  0  0  0  0  0
    6.5606   -3.1008   24.0926 H   0  0  0  0  0  0  0  0  0  0  0  0
    6.3018   -7.6915   22.2234 H   0  0  0  0  0  0  0  0  0  0  0  0
    5.3702   -4.8667   25.3349 H   0  0  0  0  0  0  0  0  0  0  0  0
    5.6979    0.9298   17.3083 H   0  0  0  0  0  0  0  0  0  0  0  0
    9.2915   -0.7421   18.4093 H   0  0  0  0  0  0  0  0  0  0  0  0
   10.1968    3.6866   23.8161 H   0  0  0  0  0  0  0  0  0  0  0  0
    9.5977    3.7264   22.0617 H   0  0  0  0  0  0  0  0  0  0  0  0
    9.8820    1.2852   23.9223 H   0  0  0  0  0  0  0  0  0  0  0  0
   15.5767   -3.1075   25.2847 H   0  0  0  0  0  0  0  0  0  0  0  0
   13.9852   -2.3233   25.6707 H   0  0  0  0  0  0  0  0  0  0  0  0
   14.9166   -0.1008   24.9997 H   0  0  0  0  0  0  0  0  0  0  0  0
   16.5086   -0.8828   24.6108 H   0  0  0  0  0  0  0  0  0  0  0  0
   16.5918   -2.8122   23.0108 H   0  0  0  0  0  0  0  0  0  0  0  0
   15.8067   -1.8728   21.7269 H   0  0  0  0  0  0  0  0  0  0  0  0
   15.1458   -3.4488   22.2036 H   0  0  0  0  0  0  0  0  0  0  0  0
    4.0203   -7.8669   26.2361 H   0  0  0  0  0  0  0  0  0  0  0  0
    3.7861   -6.1975   25.6308 H   0  0  0  0  0  0  0  0  0  0  0  0
    5.2973   -6.6439   26.4659 H   0  0  0  0  0  0  0  0  0  0  0  0
    9.4582   -1.9842   20.5735 H   0  0  0  0  0  0  0  0  0  0  0  0
    8.2051   -3.6629   20.8503 H   0  0  0  0  0  0  0  0  0  0  0  0
  1  4  2  0  0  0  0
  1 11  1  0  0  0  0
  2  5  2  0  0  0  0
  2 13  1  0  0  0  0
  3  6  1  0  0  0  0
  3 13  2  0  0  0  0
  4 14  1  0  0  0  0
  5 16  1  0  0  0  0
  6 16  2  0  0  0  0
  7  9  2  0  0  0  0
  7 15  1  0  0  0  0
  8 10  1  0  0  0  0
  8 15  2  0  0  0  0
  9 17  1  0  0  0  0
 10 17  2  0  0  0  0
 11 28  2  0  0  0  0
 12 14  2  0  0  0  0
 12 28  1  0  0  0  0
 13 24  1  0  0  0  0
 14 27  1  0  0  0  0
 15 29  1  0  0  0  0
 16 30  1  0  0  0  0
 17 33  1  0  0  0  0
 18 19  2  0  0  0  0
 19 20  1  0  0  0  0
 20 30  1  0  0  0  0
 20 31  2  0  0  0  0
 21 27  1  0  0  0  0
 21 29  1  0  0  0  0
 21 32  2  0  0  0  0
 22 23  1  0  0  0  0
 22 24  1  0  0  0  0
 23 24  1  0  0  0  0
 24 25  1  0  0  0  0
 26 33  1  0  0  0  0
 27 30  1  0  0  0  0
  1 34  1  0  0  0  0
  2 35  1  0  0  0  0
  3 36  1  0  0  0  0
  4 37  1  0  0  0  0
  5 38  1  0  0  0  0
  6 39  1  0  0  0  0
  7 40  1  0  0  0  0
  8 41  1  0  0  0  0
  9 42  1  0  0  0  0
 10 43  1  0  0  0  0
 11 44  1  0  0  0  0
 12 45  1  0  0  0  0
 18 46  1  0  0  0  0
 18 47  1  0  0  0  0
 19 48  1  0  0  0  0
 22 49  1  0  0  0  0
 22 50  1  0  0  0  0
 23 51  1  0  0  0  0
 23 52  1  0  0  0  0
 25 53  1  0  0  0  0
 25 54  1  0  0  0  0
 25 55  1  0  0  0  0
 26 56  1  0  0  0  0
 26 57  1  0  0  0  0
 26 58  1  0  0  0  0
 27 59  1  0  0  0  0
 29 60  1  0  0  0  0
M  END
> <series>
3-aminopyridine-like

> <r_inhibition_at_20_uM>
0.0

> <r_inhibition_at_50_uM>
0.0

> <r_IC50>

> <f_inhibition_at_20_uM>

> <f_inhibition_at_50_uM>
12.60155

> <f_avg_IC50>

> <f_avg_pIC50>

> <ASSAYED>
True

> <Hybrid2>
-8.190003

> <docked_fragment>
x0678

> <Mpro-_dock>
-4.102943

> <site>
active-noncovalent

$$$$
EDG-MED-0da5ad92-21
  -OEChem-07042000473D

 29 30  0     0  0  0  0  0  0999 V2000
    6.3006    0.9748   17.9792 C   0  0  0  0  0  0  0  0  0  0  0  0
    7.1120    0.0921   18.6918 C   0  0  0  0  0  0  0  0  0  0  0  0
    5.2134    1.5837   18.6061 C   0  0  0  0  0  0  0  0  0  0  0  0
    5.7490    0.4269   20.6584 C   0  0  0  0  0  0  0  0  0  0  0  0
    9.4275    0.1179   25.1563 C   0  0  0  0  0  0  0  0  0  0  0  0
    6.8362   -0.1819   20.0314 C   0  0  0  0  0  0  0  0  0  0  0  0
    9.7283   -0.1955   23.8534 C   0  0  0  0  0  0  0  0  0  0  0  0
    4.9376    1.3097   19.9457 C   0  0  0  0  0  0  0  0  0  0  0  0
   11.1101    0.0498   23.7424 C   0  0  0  0  0  0  0  0  0  0  0  0
    8.8817   -0.4573   21.4955 C   0  0  0  0  0  0  0  0  0  0  0  0
   11.9658   -0.1184   22.5542 C   0  0  0  0  0  0  0  0  0  0  0  0
    7.7036   -1.1268   20.7925 C   0  0  0  0  0  0  0  0  0  0  0  0
   11.6497    0.4857   24.8838 N   0  0  0  0  0  0  0  0  0  0  0  0
   10.6016    0.5168   25.7244 N   0  0  0  0  0  0  0  0  0  0  0  0
    8.8203   -0.6595   22.8719 N   0  0  0  0  0  0  0  0  0  0  0  0
    9.7369    0.1647   20.8734 O   0  0  0  0  0  0  0  0  0  0  0  0
    3.5954    2.0602   20.7183 Cl  0  0  0  0  0  0  0  0  0  0  0  0
    6.5156    1.1878   16.9360 H   0  0  0  0  0  0  0  0  0  0  0  0
    7.9570   -0.3778   18.1953 H   0  0  0  0  0  0  0  0  0  0  0  0
    4.5893    2.2694   18.0382 H   0  0  0  0  0  0  0  0  0  0  0  0
    5.5385    0.2104   21.7032 H   0  0  0  0  0  0  0  0  0  0  0  0
    8.5059    0.0946   25.7208 H   0  0  0  0  0  0  0  0  0  0  0  0
   12.0031    0.8067   21.9545 H   0  0  0  0  0  0  0  0  0  0  0  0
   13.0035   -0.3834   22.8231 H   0  0  0  0  0  0  0  0  0  0  0  0
   11.6076   -0.9288   21.8951 H   0  0  0  0  0  0  0  0  0  0  0  0
    7.1119   -1.6614   21.5538 H   0  0  0  0  0  0  0  0  0  0  0  0
    8.1032   -1.9040   20.1204 H   0  0  0  0  0  0  0  0  0  0  0  0
   10.7594    0.8216   26.6768 H   0  0  0  0  0  0  0  0  0  0  0  0
    8.0305   -1.2044   23.2117 H   0  0  0  0  0  0  0  0  0  0  0  0
  1  2  2  0  0  0  0
  1  3  1  0  0  0  0
  2  6  1  0  0  0  0
  3  8  2  0  0  0  0
  4  6  2  0  0  0  0
  4  8  1  0  0  0  0
  5  7  2  0  0  0  0
  5 14  1  0  0  0  0
  6 12  1  0  0  0  0
  7  9  1  0  0  0  0
  7 15  1  0  0  0  0
  8 17  1  0  0  0  0
  9 11  1  0  0  0  0
  9 13  2  0  0  0  0
 10 12  1  0  0  0  0
 10 15  1  0  0  0  0
 10 16  2  0  0  0  0
 13 14  1  0  0  0  0
  1 18  1  0  0  0  0
  2 19  1  0  0  0  0
  3 20  1  0  0  0  0
  4 21  1  0  0  0  0
  5 22  1  0  0  0  0
 11 23  1  0  0  0  0
 11 24  1  0  0  0  0
 11 25  1  0  0  0  0
 12 26  1  0  0  0  0
 12 27  1  0  0  0  0
 14 28  1  0  0  0  0
 15 29  1  0  0  0  0
M  END
> <series>
3-aminopyridine-like

> <r_inhibition_at_20_uM>

> <r_inhibition_at_50_uM>
52.129217931090785

> <r_IC50>
99.0

> <f_inhibition_at_20_uM>
3.6405765

> <f_inhibition_at_50_uM>
6.9253680000000015

> <f_avg_IC50>

> <f_avg_pIC50>

> <ASSAYED>
True

> <Hybrid2>
-8.186812

> <docked_fragment>
x0434

> <Mpro-_dock>
-8.183157

> <site>
active-noncovalent

$$$$
LON-WEI-adc59df6-37
  -OEChem-07042000473D

 61 63  0     1  0  0  0  0  0999 V2000
    5.9408    0.5457   19.5132 C   0  0  0  0  0  0  0  0  0  0  0  0
    6.7665   -0.0731   20.4452 C   0  0  0  0  0  0  0  0  0  0  0  0
   12.5831   -2.3539   22.9727 C   0  0  0  0  0  0  0  0  0  0  0  0
   13.4835   -0.1921   22.3786 C   0  0  0  0  0  0  0  0  0  0  0  0
   11.3151   -1.9371   22.5677 C   0  0  0  0  0  0  0  0  0  0  0  0
   12.2155    0.2247   21.9735 C   0  0  0  0  0  0  0  0  0  0  0  0
    6.9818   -5.5133   22.0904 C   0  0  0  0  0  0  0  0  0  0  0  0
    6.2895   -6.4380   22.8645 C   0  0  0  0  0  0  0  0  0  0  0  0
    6.4031    0.6601   18.2120 C   0  0  0  0  0  0  0  0  0  0  0  0
    8.3812   -0.3883   18.7277 C   0  0  0  0  0  0  0  0  0  0  0  0
    6.6626   -3.9079   23.8159 C   0  0  0  0  0  0  0  0  0  0  0  0
   13.6673   -1.4814   22.8782 C   0  0  0  0  0  0  0  0  0  0  0  0
    8.0117   -0.5517   20.0531 C   0  0  0  0  0  0  0  0  0  0  0  0
   11.1313   -0.6478   22.0681 C   0  0  0  0  0  0  0  0  0  0  0  0
    7.1762   -4.2221   22.5680 C   0  0  0  0  0  0  0  0  0  0  0  0
    5.8157   -6.0247   24.0992 C   0  0  0  0  0  0  0  0  0  0  0  0
   10.1077    3.2935   22.6853 C   0  0  0  0  0  0  0  0  0  0  0  0
    9.9547    1.9753   22.8465 C   0  0  0  0  0  0  0  0  0  0  0  0
    9.4203    1.1377   21.7329 C   0  0  0  0  0  0  0  0  0  0  0  0
    8.1492   -1.9371   22.1459 C   0  0  0  0  0  0  0  0  0  0  0  0
   15.5009   -3.1645   22.4898 C   0  0  0  0  0  0  0  0  0  0  0  0
   15.0312   -2.3314   24.8183 C   0  0  0  0  0  0  0  0  0  0  0  0
   16.1600   -0.8627   23.1600 C   0  0  0  0  0  0  0  0  0  0  0  0
    4.6651   -6.4426   26.1381 C   0  0  0  0  0  0  0  0  0  0  0  0
    8.9329   -1.2301   21.0429 C   0  0  2  0  0  0  0  0  0  0  0  0
   15.0650   -1.9409   23.3248 C   0  0  0  0  0  0  0  0  0  0  0  0
    7.6063    0.2074   17.7938 N   0  0  0  0  0  0  0  0  0  0  0  0
    5.9849   -4.7790   24.5966 N   0  0  0  0  0  0  0  0  0  0  0  0
    7.8773   -3.2593   21.8037 N   0  0  0  0  0  0  0  0  0  0  0  0
    9.8632   -0.2307   21.6626 N   0  0  0  0  0  0  0  0  0  0  0  0
    8.6550    1.6523   20.9169 O   0  0  0  0  0  0  0  0  0  0  0  0
    7.8192   -1.3559   23.1763 O   0  0  0  0  0  0  0  0  0  0  0  0
    5.1297   -6.9175   24.8802 O   0  0  0  0  0  0  0  0  0  0  0  0
    4.9660    0.9261   19.7962 H   0  0  0  0  0  0  0  0  0  0  0  0
    6.4318   -0.1779   21.4736 H   0  0  0  0  0  0  0  0  0  0  0  0
   12.7167   -3.3594   23.3629 H   0  0  0  0  0  0  0  0  0  0  0  0
   14.3225    0.4945   22.3022 H   0  0  0  0  0  0  0  0  0  0  0  0
   10.4773   -2.6256   22.6454 H   0  0  0  0  0  0  0  0  0  0  0  0
   12.0833    1.2321   21.5866 H   0  0  0  0  0  0  0  0  0  0  0  0
    7.3654   -5.8093   21.1176 H   0  0  0  0  0  0  0  0  0  0  0  0
    6.1298   -7.4492   22.5065 H   0  0  0  0  0  0  0  0  0  0  0  0
    5.7968    1.1350   17.4477 H   0  0  0  0  0  0  0  0  0  0  0  0
    9.3410   -0.7417   18.3635 H   0  0  0  0  0  0  0  0  0  0  0  0
    6.7823   -2.9164   24.2423 H   0  0  0  0  0  0  0  0  0  0  0  0
   10.5184    3.8945   23.4899 H   0  0  0  0  0  0  0  0  0  0  0  0
    9.8293    3.8054   21.7707 H   0  0  0  0  0  0  0  0  0  0  0  0
   10.2609    1.5003   23.7713 H   0  0  0  0  0  0  0  0  0  0  0  0
   16.4964   -3.5128   22.7889 H   0  0  0  0  0  0  0  0  0  0  0  0
   14.8167   -4.0119   22.6077 H   0  0  0  0  0  0  0  0  0  0  0  0
   15.5401   -2.9194   21.4218 H   0  0  0  0  0  0  0  0  0  0  0  0
   16.0089   -2.6665   25.1815 H   0  0  0  0  0  0  0  0  0  0  0  0
   14.7319   -1.4813   25.4425 H   0  0  0  0  0  0  0  0  0  0  0  0
   14.3175   -3.1443   24.9974 H   0  0  0  0  0  0  0  0  0  0  0  0
   17.1362   -1.2371   23.4910 H   0  0  0  0  0  0  0  0  0  0  0  0
   16.2710   -0.5568   22.1131 H   0  0  0  0  0  0  0  0  0  0  0  0
   15.9393    0.0309   23.7555 H   0  0  0  0  0  0  0  0  0  0  0  0
    4.1380   -7.2454   26.6595 H   0  0  0  0  0  0  0  0  0  0  0  0
    3.9953   -5.5931   25.9831 H   0  0  0  0  0  0  0  0  0  0  0  0
    5.5221   -6.1239   26.7363 H   0  0  0  0  0  0  0  0  0  0  0  0
    9.5567   -1.9723   20.5299 H   0  0  0  0  0  0  0  0  0  0  0  0
    8.2231   -3.5694   20.8980 H   0  0  0  0  0  0  0  0  0  0  0  0
  1  2  2  0  0  0  0
  1  9  1  0  0  0  0
  2 13  1  0  0  0  0
  3  5  2  0  0  0  0
  3 12  1  0  0  0  0
  4  6  1  0  0  0  0
  4 12  2  0  0  0  0
  5 14  1  0  0  0  0
  6 14  2  0  0  0  0
  7  8  2  0  0  0  0
  7 15  1  0  0  0  0
  8 16  1  0  0  0  0
  9 27  2  0  0  0  0
 10 13  2  0  0  0  0
 10 27  1  0  0  0  0
 11 15  2  0  0  0  0
 11 28  1  0  0  0  0
 12 26  1  0  0  0  0
 13 25  1  0  0  0  0
 14 30  1  0  0  0  0
 15 29  1  0  0  0  0
 16 28  2  0  0  0  0
 16 33  1  0  0  0  0
 17 18  2  0  0  0  0
 18 19  1  0  0  0  0
 19 30  1  0  0  0  0
 19 31  2  0  0  0  0
 20 25  1  0  0  0  0
 20 29  1  0  0  0  0
 20 32  2  0  0  0  0
 21 26  1  0  0  0  0
 22 26  1  0  0  0  0
 23 26  1  0  0  0  0
 24 33  1  0  0  0  0
 25 30  1  0  0  0  0
  1 34  1  0  0  0  0
  2 35  1  0  0  0  0
  3 36  1  0  0  0  0
  4 37  1  0  0  0  0
  5 38  1  0  0  0  0
  6 39  1  0  0  0  0
  7 40  1  0  0  0  0
  8 41  1  0  0  0  0
  9 42  1  0  0  0  0
 10 43  1  0  0  0  0
 11 44  1  0  0  0  0
 17 45  1  0  0  0  0
 17 46  1  0  0  0  0
 18 47  1  0  0  0  0
 21 48  1  0  0  0  0
 21 49  1  0  0  0  0
 21 50  1  0  0  0  0
 22 51  1  0  0  0  0
 22 52  1  0  0  0  0
 22 53  1  0  0  0  0
 23 54  1  0  0  0  0
 23 55  1  0  0  0  0
 23 56  1  0  0  0  0
 24 57  1  0  0  0  0
 24 58  1  0  0  0  0
 24 59  1  0  0  0  0
 25 60  1  0  0  0  0
 29 61  1  0  0  0  0
M  END
> <series>
3-aminopyridine-like

> <r_inhibition_at_20_uM>
0.0

> <r_inhibition_at_50_uM>
0.0

> <r_IC50>

> <f_inhibition_at_20_uM>
1.0755620000000001

> <f_inhibition_at_50_uM>
13.399289999999999

> <f_avg_IC50>

> <f_avg_pIC50>

> <ASSAYED>
True

> <Hybrid2>
-8.158406

> <docked_fragment>
x0678

> <Mpro-_dock>
-4.055161

> <site>
active-noncovalent

$$$$
BAR-COM-4e090d3a-15
  -OEChem-07042000473D

 45 47  0     0  0  0  0  0  0999 V2000
   15.0413   -2.7061   23.5389 C   0  0  0  0  0  0  0  0  0  0  0  0
   14.6274   -2.0750   24.7120 C   0  0  0  0  0  0  0  0  0  0  0  0
   14.7561   -2.1320   22.3001 C   0  0  0  0  0  0  0  0  0  0  0  0
    8.5085   -2.5662   24.9787 C   0  0  0  0  0  0  0  0  0  0  0  0
    5.1428    2.3530   17.3698 C   0  0  0  0  0  0  0  0  0  0  0  0
   13.9283   -0.8698   24.6462 C   0  0  0  0  0  0  0  0  0  0  0  0
   14.0570   -0.9267   22.2343 C   0  0  0  0  0  0  0  0  0  0  0  0
    4.9423    1.8506   18.6507 C   0  0  0  0  0  0  0  0  0  0  0  0
    7.5405   -2.2503   24.0254 C   0  0  0  0  0  0  0  0  0  0  0  0
    9.6414   -1.7639   25.1146 C   0  0  0  0  0  0  0  0  0  0  0  0
    8.8385   -0.3300   23.3437 C   0  0  0  0  0  0  0  0  0  0  0  0
    6.1044    1.7460   16.5782 C   0  0  0  0  0  0  0  0  0  0  0  0
   13.6431   -0.2956   23.4074 C   0  0  0  0  0  0  0  0  0  0  0  0
    5.6989    0.7717   19.0946 C   0  0  0  0  0  0  0  0  0  0  0  0
    7.7055   -1.1323   23.2078 C   0  0  0  0  0  0  0  0  0  0  0  0
    9.8065   -0.6459   24.2971 C   0  0  0  0  0  0  0  0  0  0  0  0
    6.6355    0.2354   18.2257 C   0  0  0  0  0  0  0  0  0  0  0  0
    6.7266    0.2576   21.3490 C   0  0  0  0  0  0  0  0  0  0  0  0
    5.4772    0.2305   20.4826 C   0  0  0  0  0  0  0  0  0  0  0  0
   12.8954    0.9929   23.3363 C   0  0  0  0  0  0  0  0  0  0  0  0
   11.3788    0.8058   23.2597 C   0  0  0  0  0  0  0  0  0  0  0  0
    6.8586    0.6964   16.9745 N   0  0  0  0  0  0  0  0  0  0  0  0
    6.7368   -0.8165   22.2545 N   0  0  0  0  0  0  0  0  0  0  0  0
    7.5847    1.1270   21.2352 O   0  0  0  0  0  0  0  0  0  0  0  0
   10.9195    0.1422   24.4304 O   0  0  0  0  0  0  0  0  0  0  0  0
    7.6329   -1.0973   18.6591 Cl  0  0  0  0  0  0  0  0  0  0  0  0
   15.5868   -3.6439   23.5904 H   0  0  0  0  0  0  0  0  0  0  0  0
   14.8503   -2.5214   25.6767 H   0  0  0  0  0  0  0  0  0  0  0  0
   15.0791   -2.6225   21.3867 H   0  0  0  0  0  0  0  0  0  0  0  0
    8.3792   -3.4362   25.6156 H   0  0  0  0  0  0  0  0  0  0  0  0
    4.5641    3.1928   17.0024 H   0  0  0  0  0  0  0  0  0  0  0  0
   13.6096   -0.3853   25.5654 H   0  0  0  0  0  0  0  0  0  0  0  0
   13.8392   -0.4868   21.2647 H   0  0  0  0  0  0  0  0  0  0  0  0
    4.1950    2.3060   19.2947 H   0  0  0  0  0  0  0  0  0  0  0  0
    6.6619   -2.8830   23.9280 H   0  0  0  0  0  0  0  0  0  0  0  0
   10.3912   -2.0152   25.8596 H   0  0  0  0  0  0  0  0  0  0  0  0
    8.9714    0.5432   22.7088 H   0  0  0  0  0  0  0  0  0  0  0  0
    6.2995    2.1003   15.5715 H   0  0  0  0  0  0  0  0  0  0  0  0
    4.6903    0.8096   20.9824 H   0  0  0  0  0  0  0  0  0  0  0  0
    5.1136   -0.8030   20.4198 H   0  0  0  0  0  0  0  0  0  0  0  0
   13.1378    1.6191   24.2092 H   0  0  0  0  0  0  0  0  0  0  0  0
   13.2227    1.5611   22.4521 H   0  0  0  0  0  0  0  0  0  0  0  0
   10.8812    1.7797   23.2096 H   0  0  0  0  0  0  0  0  0  0  0  0
   11.0889    0.2169   22.3832 H   0  0  0  0  0  0  0  0  0  0  0  0
    5.9296   -1.4491   22.2090 H   0  0  0  0  0  0  0  0  0  0  0  0
  1  2  1  0  0  0  0
  1  3  2  0  0  0  0
  2  6  2  0  0  0  0
  3  7  1  0  0  0  0
  4  9  2  0  0  0  0
  4 10  1  0  0  0  0
  5  8  2  0  0  0  0
  5 12  1  0  0  0  0
  6 13  1  0  0  0  0
  7 13  2  0  0  0  0
  8 14  1  0  0  0  0
  9 15  1  0  0  0  0
 10 16  2  0  0  0  0
 11 15  2  0  0  0  0
 11 16  1  0  0  0  0
 12 22  2  0  0  0  0
 13 20  1  0  0  0  0
 14 17  2  0  0  0  0
 14 19  1  0  0  0  0
 15 23  1  0  0  0  0
 16 25  1  0  0  0  0
 17 22  1  0  0  0  0
 17 26  1  0  0  0  0
 18 19  1  0  0  0  0
 18 23  1  0  0  0  0
 18 24  2  0  0  0  0
 20 21  1  0  0  0  0
 21 25  1  0  0  0  0
  1 27  1  0  0  0  0
  2 28  1  0  0  0  0
  3 29  1  0  0  0  0
  4 30  1  0  0  0  0
  5 31  1  0  0  0  0
  6 32  1  0  0  0  0
  7 33  1  0  0  0  0
  8 34  1  0  0  0  0
  9 35  1  0  0  0  0
 10 36  1  0  0  0  0
 11 37  1  0  0  0  0
 12 38  1  0  0  0  0
 19 39  1  0  0  0  0
 19 40  1  0  0  0  0
 20 41  1  0  0  0  0
 20 42  1  0  0  0  0
 21 43  1  0  0  0  0
 21 44  1  0  0  0  0
 23 45  1  0  0  0  0
M  END
> <series>
3-aminopyridine-like

> <r_inhibition_at_20_uM>
0.0

> <r_inhibition_at_50_uM>
5.025

> <r_IC50>

> <f_inhibition_at_20_uM>
1.542335

> <f_inhibition_at_50_uM>
6.898822999999999

> <f_avg_IC50>

> <f_avg_pIC50>

> <ASSAYED>
True

> <Hybrid2>
-8.133649

> <docked_fragment>
x0678

> <Mpro-_dock>
-6.521761

> <site>
active-noncovalent

$$$$
WAR-XCH-eb7b662f-2
  -OEChem-07042000473D

 28 29  0     0  0  0  0  0  0999 V2000
   14.8886   -1.6801   21.5539 C   0  0  0  0  0  0  0  0  0  0  0  0
    5.5825    1.1081   19.0595 C   0  0  0  0  0  0  0  0  0  0  0  0
    6.4098    0.9959   20.1714 C   0  0  0  0  0  0  0  0  0  0  0  0
   12.6389   -0.8435   22.0220 C   0  0  0  0  0  0  0  0  0  0  0  0
   14.2155   -1.1042   23.8339 C   0  0  0  0  0  0  0  0  0  0  0  0
   11.9891   -0.2785   24.2793 C   0  0  0  0  0  0  0  0  0  0  0  0
    6.0997    0.7435   17.8269 C   0  0  0  0  0  0  0  0  0  0  0  0
    8.1325    0.1903   18.7433 C   0  0  0  0  0  0  0  0  0  0  0  0
   13.9065   -1.2056   22.4775 C   0  0  0  0  0  0  0  0  0  0  0  0
    7.7106    0.5291   20.0188 C   0  0  0  0  0  0  0  0  0  0  0  0
   11.6802   -0.3799   22.9229 C   0  0  0  0  0  0  0  0  0  0  0  0
   13.2568   -0.6406   24.7349 C   0  0  0  0  0  0  0  0  0  0  0  0
    9.9056   -0.0468   21.1456 C   0  0  0  0  0  0  0  0  0  0  0  0
   15.6859   -2.0654   20.8038 N   0  0  0  0  0  0  0  0  0  0  0  0
    7.3579    0.2859   17.6394 N   0  0  0  0  0  0  0  0  0  0  0  0
    8.5760    0.4043   21.1313 N   0  0  0  0  0  0  0  0  0  0  0  0
   10.4121   -0.0172   22.4679 N   0  0  0  0  0  0  0  0  0  0  0  0
   10.5409   -0.4137   20.1623 O   0  0  0  0  0  0  0  0  0  0  0  0
   13.6382   -0.5149   26.4086 Cl  0  0  0  0  0  0  0  0  0  0  0  0
    4.5650    1.4696   19.1549 H   0  0  0  0  0  0  0  0  0  0  0  0
    6.0311    1.2747   21.1512 H   0  0  0  0  0  0  0  0  0  0  0  0
   12.3945   -0.9210   20.9642 H   0  0  0  0  0  0  0  0  0  0  0  0
   15.2044   -1.3861   24.1905 H   0  0  0  0  0  0  0  0  0  0  0  0
   11.2396    0.0838   24.9799 H   0  0  0  0  0  0  0  0  0  0  0  0
    5.4950    0.8135   16.9287 H   0  0  0  0  0  0  0  0  0  0  0  0
    9.1369   -0.1803   18.5607 H   0  0  0  0  0  0  0  0  0  0  0  0
    8.1872    0.6745   22.0311 H   0  0  0  0  0  0  0  0  0  0  0  0
    9.7492    0.3163   23.1758 H   0  0  0  0  0  0  0  0  0  0  0  0
  1  9  1  0  0  0  0
  1 14  3  0  0  0  0
  2  3  2  0  0  0  0
  2  7  1  0  0  0  0
  3 10  1  0  0  0  0
  4  9  2  0  0  0  0
  4 11  1  0  0  0  0
  5  9  1  0  0  0  0
  5 12  2  0  0  0  0
  6 11  2  0  0  0  0
  6 12  1  0  0  0  0
  7 15  2  0  0  0  0
  8 10  2  0  0  0  0
  8 15  1  0  0  0  0
 10 16  1  0  0  0  0
 11 17  1  0  0  0  0
 12 19  1  0  0  0  0
 13 16  1  0  0  0  0
 13 17  1  0  0  0  0
 13 18  2  0  0  0  0
  2 20  1  0  0  0  0
  3 21  1  0  0  0  0
  4 22  1  0  0  0  0
  5 23  1  0  0  0  0
  6 24  1  0  0  0  0
  7 25  1  0  0  0  0
  8 26  1  0  0  0  0
 16 27  1  0  0  0  0
 17 28  1  0  0  0  0
M  END
> <series>
3-aminopyridine-like

> <r_inhibition_at_20_uM>
6.7825000000000015

> <r_inhibition_at_50_uM>
36.54

> <r_IC50>

> <f_inhibition_at_20_uM>
23.03763

> <f_inhibition_at_50_uM>
43.902085

> <f_avg_IC50>
99.01

> <f_avg_pIC50>

> <ASSAYED>
True

> <Hybrid2>
-8.034250

> <docked_fragment>
x0678

> <Mpro-_dock>
-5.10216

> <site>
active-noncovalent

$$$$
EDJ-MED-49816e9b-3
  -OEChem-07042000473D

 32 33  0     0  0  0  0  0  0999 V2000
   12.7031    1.1794   23.0493 C   0  0  0  0  0  0  0  0  0  0  0  0
   11.3417    0.8801   23.0997 C   0  0  0  0  0  0  0  0  0  0  0  0
   13.6444    0.2039   23.3782 C   0  0  0  0  0  0  0  0  0  0  0  0
   11.8628   -1.3702   23.8083 C   0  0  0  0  0  0  0  0  0  0  0  0
    6.5763    0.1788   18.4455 C   0  0  0  0  0  0  0  0  0  0  0  0
   10.9215   -0.3947   23.4793 C   0  0  0  0  0  0  0  0  0  0  0  0
    6.3068    0.0861   19.8241 C   0  0  0  0  0  0  0  0  0  0  0  0
   13.2242   -1.0709   23.7577 C   0  0  0  0  0  0  0  0  0  0  0  0
    7.5200   -0.2180   20.3915 C   0  0  0  0  0  0  0  0  0  0  0  0
    8.9005   -1.2572   22.2244 C   0  0  0  0  0  0  0  0  0  0  0  0
    5.0104    0.2733   20.4979 C   0  0  0  0  0  0  0  0  0  0  0  0
    9.8206   -0.5794   19.4423 C   0  0  0  0  0  0  0  0  0  0  0  0
    9.4656   -0.7136   23.5342 C   0  0  0  0  0  0  0  0  0  0  0  0
    7.8601   -0.0478   18.1548 N   0  0  0  0  0  0  0  0  0  0  0  0
    8.4081   -0.2859   19.3586 N   0  0  0  0  0  0  0  0  0  0  0  0
    7.8849   -0.4358   21.7415 N   0  0  0  0  0  0  0  0  0  0  0  0
    9.3267   -2.2889   21.7154 O   0  0  0  0  0  0  0  0  0  0  0  0
   14.3859   -2.2736   24.1646 Cl  0  0  0  0  0  0  0  0  0  0  0  0
   13.0300    2.1722   22.7538 H   0  0  0  0  0  0  0  0  0  0  0  0
   10.6154    1.6464   22.8418 H   0  0  0  0  0  0  0  0  0  0  0  0
   14.7022    0.4514   23.3347 H   0  0  0  0  0  0  0  0  0  0  0  0
   11.5300   -2.3628   24.1030 H   0  0  0  0  0  0  0  0  0  0  0  0
    5.8929    0.4014   17.6382 H   0  0  0  0  0  0  0  0  0  0  0  0
    4.4578   -0.6787   20.5745 H   0  0  0  0  0  0  0  0  0  0  0  0
    5.1262    0.6737   21.5208 H   0  0  0  0  0  0  0  0  0  0  0  0
    4.3630    0.9916   19.9640 H   0  0  0  0  0  0  0  0  0  0  0  0
    9.9460   -1.6617   19.3529 H   0  0  0  0  0  0  0  0  0  0  0  0
   10.3478   -0.0654   18.6338 H   0  0  0  0  0  0  0  0  0  0  0  0
   10.2067   -0.2268   20.4027 H   0  0  0  0  0  0  0  0  0  0  0  0
    9.2655   -1.4552   24.3252 H   0  0  0  0  0  0  0  0  0  0  0  0
    8.8882    0.1843   23.8093 H   0  0  0  0  0  0  0  0  0  0  0  0
    7.3419    0.0664   22.4408 H   0  0  0  0  0  0  0  0  0  0  0  0
  1  2  2  0  0  0  0
  1  3  1  0  0  0  0
  2  6  1  0  0  0  0
  3  8  2  0  0  0  0
  4  6  2  0  0  0  0
  4  8  1  0  0  0  0
  5  7  1  0  0  0  0
  5 14  2  0  0  0  0
  6 13  1  0  0  0  0
  7  9  2  0  0  0  0
  7 11  1  0  0  0  0
  8 18  1  0  0  0  0
  9 15  1  0  0  0  0
  9 16  1  0  0  0  0
 10 13  1  0  0  0  0
 10 16  1  0  0  0  0
 10 17  2  0  0  0  0
 12 15  1  0  0  0  0
 14 15  1  0  0  0  0
  1 19  1  0  0  0  0
  2 20  1  0  0  0  0
  3 21  1  0  0  0  0
  4 22  1  0  0  0  0
  5 23  1  0  0  0  0
 11 24  1  0  0  0  0
 11 25  1  0  0  0  0
 11 26  1  0  0  0  0
 12 27  1  0  0  0  0
 12 28  1  0  0  0  0
 12 29  1  0  0  0  0
 13 30  1  0  0  0  0
 13 31  1  0  0  0  0
 16 32  1  0  0  0  0
M  END
> <series>
3-aminopyridine-like

> <r_inhibition_at_20_uM>

> <r_inhibition_at_50_uM>
23.102850216626816

> <r_IC50>

> <f_inhibition_at_20_uM>
3.1091525

> <f_inhibition_at_50_uM>
5.0604005

> <f_avg_IC50>

> <f_avg_pIC50>

> <ASSAYED>
True

> <Hybrid2>
-8.033812

> <docked_fragment>
x0678

> <Mpro-_dock>
-7.248595

> <site>
active-noncovalent

$$$$
BAR-COM-4e090d3a-66
  -OEChem-07042000473D

 48 50  0     1  0  0  0  0  0999 V2000
    9.5005   -0.7887   25.9092 C   0  0  0  0  0  0  0  0  0  0  0  0
   10.5800    0.0624   25.6731 C   0  0  0  0  0  0  0  0  0  0  0  0
    8.6225   -1.1059   24.8727 C   0  0  0  0  0  0  0  0  0  0  0  0
    5.1707    1.2878   17.9172 C   0  0  0  0  0  0  0  0  0  0  0  0
    9.9036    0.2795   23.3638 C   0  0  0  0  0  0  0  0  0  0  0  0
    4.2907    1.9166   18.7833 C   0  0  0  0  0  0  0  0  0  0  0  0
    5.0355    0.6870   20.5753 C   0  0  0  0  0  0  0  0  0  0  0  0
   10.7815    0.5966   24.4004 C   0  0  0  0  0  0  0  0  0  0  0  0
    5.9503    0.0004   19.7932 C   0  0  0  0  0  0  0  0  0  0  0  0
    8.8241   -0.5717   23.6000 C   0  0  0  0  0  0  0  0  0  0  0  0
    6.0129    0.3127   18.4397 C   0  0  0  0  0  0  0  0  0  0  0  0
    7.9844   -0.4543   21.2281 C   0  0  0  0  0  0  0  0  0  0  0  0
   12.6409    3.9098   23.9178 C   0  0  0  0  0  0  0  0  0  0  0  0
   10.2944    3.3514   24.5206 C   0  0  0  0  0  0  0  0  0  0  0  0
   12.1324    5.2660   23.4593 C   0  0  0  0  0  0  0  0  0  0  0  0
    9.9072    4.7367   24.0315 C   0  0  0  0  0  0  0  0  0  0  0  0
   12.8874    0.9948   23.0589 C   0  0  0  0  0  0  0  0  0  0  0  0
    6.8327   -1.0423   20.4280 C   0  0  0  0  0  0  0  0  0  0  0  0
   11.9513    1.5188   24.1451 C   0  0  1  0  0  0  0  0  0  0  0  0
    4.2011    1.6403   20.1036 N   0  0  0  0  0  0  0  0  0  0  0  0
    7.9461   -0.8896   22.5633 N   0  0  0  0  0  0  0  0  0  0  0  0
   11.5227    2.9061   23.7621 N   0  3  0  0  0  0  0  0  0  0  0  0
    8.8129    0.2994   20.7275 O   0  0  0  0  0  0  0  0  0  0  0  0
   10.9862    5.6539   24.2181 O   0  0  0  0  0  0  0  0  0  0  0  0
    7.1165   -0.4883   17.3836 Cl  0  0  0  0  0  0  0  0  0  0  0  0
    9.3437   -1.2050   26.9001 H   0  0  0  0  0  0  0  0  0  0  0  0
   11.2580    0.3041   26.4870 H   0  0  0  0  0  0  0  0  0  0  0  0
    7.7845   -1.7701   25.0682 H   0  0  0  0  0  0  0  0  0  0  0  0
    5.1904    1.5587   16.8668 H   0  0  0  0  0  0  0  0  0  0  0  0
   10.0624    0.6980   22.3723 H   0  0  0  0  0  0  0  0  0  0  0  0
    3.6121    2.6835   18.4246 H   0  0  0  0  0  0  0  0  0  0  0  0
    4.9423    0.4883   21.6385 H   0  0  0  0  0  0  0  0  0  0  0  0
   13.4829    3.5713   23.3064 H   0  0  0  0  0  0  0  0  0  0  0  0
   12.9197    3.9202   24.9772 H   0  0  0  0  0  0  0  0  0  0  0  0
   10.5578    3.3573   25.5839 H   0  0  0  0  0  0  0  0  0  0  0  0
    9.5002    2.6233   24.3295 H   0  0  0  0  0  0  0  0  0  0  0  0
   12.9062    6.0233   23.6202 H   0  0  0  0  0  0  0  0  0  0  0  0
   11.8874    5.2685   22.3904 H   0  0  0  0  0  0  0  0  0  0  0  0
    9.6080    4.7266   22.9766 H   0  0  0  0  0  0  0  0  0  0  0  0
    9.0557    5.1071   24.6109 H   0  0  0  0  0  0  0  0  0  0  0  0
   12.3674    0.8400   22.1069 H   0  0  0  0  0  0  0  0  0  0  0  0
   13.7076    1.6986   22.8786 H   0  0  0  0  0  0  0  0  0  0  0  0
   13.3293    0.0369   23.3553 H   0  0  0  0  0  0  0  0  0  0  0  0
    6.2326   -1.6784   21.0911 H   0  0  0  0  0  0  0  0  0  0  0  0
    7.2424   -1.6992   19.6502 H   0  0  0  0  0  0  0  0  0  0  0  0
   12.5273    1.6525   25.0682 H   0  0  0  0  0  0  0  0  0  0  0  0
    7.1746   -1.5215   22.8070 H   0  0  0  0  0  0  0  0  0  0  0  0
   11.2740    2.8725   22.7637 H   0  0  0  0  0  0  0  0  0  0  0  0
  1  2  2  0  0  0  0
  1  3  1  0  0  0  0
  2  8  1  0  0  0  0
  3 10  2  0  0  0  0
  4  6  2  0  0  0  0
  4 11  1  0  0  0  0
  5  8  2  0  0  0  0
  5 10  1  0  0  0  0
  6 20  1  0  0  0  0
  7  9  1  0  0  0  0
  7 20  2  0  0  0  0
  8 19  1  0  0  0  0
  9 11  2  0  0  0  0
  9 18  1  0  0  0  0
 10 21  1  0  0  0  0
 11 25  1  0  0  0  0
 12 18  1  0  0  0  0
 12 21  1  0  0  0  0
 12 23  2  0  0  0  0
 13 15  1  0  0  0  0
 13 22  1  0  0  0  0
 14 16  1  0  0  0  0
 14 22  1  0  0  0  0
 15 24  1  0  0  0  0
 16 24  1  0  0  0  0
 17 19  1  0  0  0  0
 19 22  1  0  0  0  0
  1 26  1  0  0  0  0
  2 27  1  0  0  0  0
  3 28  1  0  0  0  0
  4 29  1  0  0  0  0
  5 30  1  0  0  0  0
  6 31  1  0  0  0  0
  7 32  1  0  0  0  0
 13 33  1  0  0  0  0
 13 34  1  0  0  0  0
 14 35  1  0  0  0  0
 14 36  1  0  0  0  0
 15 37  1  0  0  0  0
 15 38  1  0  0  0  0
 16 39  1  0  0  0  0
 16 40  1  0  0  0  0
 17 41  1  0  0  0  0
 17 42  1  0  0  0  0
 17 43  1  0  0  0  0
 18 44  1  0  0  0  0
 18 45  1  0  0  0  0
 19 46  1  0  0  0  0
 21 47  1  0  0  0  0
 22 48  1  0  0  0  0
M  CHG  1  22   1
M  END
> <series>
3-aminopyridine-like

> <r_inhibition_at_20_uM>
0.0

> <r_inhibition_at_50_uM>
3.865

> <r_IC50>

> <f_inhibition_at_20_uM>
2.1187109

> <f_inhibition_at_50_uM>
3.916605

> <f_avg_IC50>

> <f_avg_pIC50>

> <ASSAYED>
True

> <Hybrid2>
-8.026258

> <docked_fragment>
x0434

> <Mpro-_dock>
-7.394114

> <site>
active-noncovalent

$$$$
BAR-COM-0f94fc3d-40
  -OEChem-07042000473D

 44 47  0     0  0  0  0  0  0999 V2000
    5.0913    2.5576   23.6567 C   0  0  0  0  0  0  0  0  0  0  0  0
    4.2983    1.6295   22.9820 C   0  0  0  0  0  0  0  0  0  0  0  0
    6.3027    2.9728   23.1036 C   0  0  0  0  0  0  0  0  0  0  0  0
    4.7166    1.1165   21.7542 C   0  0  0  0  0  0  0  0  0  0  0  0
    6.7210    2.4597   21.8758 C   0  0  0  0  0  0  0  0  0  0  0  0
    5.9902    1.6589   18.7591 C   0  0  0  0  0  0  0  0  0  0  0  0
   10.7048   -2.5110   22.7535 C   0  0  0  0  0  0  0  0  0  0  0  0
    9.3814   -0.6861   23.6280 C   0  0  0  0  0  0  0  0  0  0  0  0
    6.4157    1.1315   17.5506 C   0  0  0  0  0  0  0  0  0  0  0  0
    7.5116   -0.5998   18.5897 C   0  0  0  0  0  0  0  0  0  0  0  0
    5.9280    1.5316   21.2011 C   0  0  0  0  0  0  0  0  0  0  0  0
    6.3624    0.9982   19.9246 C   0  0  0  0  0  0  0  0  0  0  0  0
    9.4619   -1.9190   22.9798 C   0  0  0  0  0  0  0  0  0  0  0  0
    7.1377   -0.1535   19.8470 C   0  0  0  0  0  0  0  0  0  0  0  0
   11.8677   -1.8654   23.1747 C   0  0  0  0  0  0  0  0  0  0  0  0
   11.7853   -0.6438   23.8476 C   0  0  0  0  0  0  0  0  0  0  0  0
   10.5429   -0.0461   24.0613 C   0  0  0  0  0  0  0  0  0  0  0  0
    7.7923   -2.2354   21.1047 C   0  0  0  0  0  0  0  0  0  0  0  0
   14.1703   -1.5991   23.0609 C   0  0  0  0  0  0  0  0  0  0  0  0
   14.0430   -0.8194   24.3551 C   0  0  0  0  0  0  0  0  0  0  0  0
    8.2176   -2.6036   22.5238 C   0  0  0  0  0  0  0  0  0  0  0  0
    7.1695    0.0152   17.4354 N   0  0  0  0  0  0  0  0  0  0  0  0
    7.5482   -0.8686   20.9971 N   0  0  0  0  0  0  0  0  0  0  0  0
    7.6953   -3.0793   20.2195 O   0  0  0  0  0  0  0  0  0  0  0  0
   13.0594   -2.4866   22.9059 O   0  0  0  0  0  0  0  0  0  0  0  0
   12.8879    0.0229   24.3144 O   0  0  0  0  0  0  0  0  0  0  0  0
   10.3976    1.4727   24.8702 Cl  0  0  0  0  0  0  0  0  0  0  0  0
    4.7646    2.9582   24.6119 H   0  0  0  0  0  0  0  0  0  0  0  0
    3.3542    1.3075   23.4117 H   0  0  0  0  0  0  0  0  0  0  0  0
    6.9201    3.6964   23.6277 H   0  0  0  0  0  0  0  0  0  0  0  0
    4.0869    0.3938   21.2404 H   0  0  0  0  0  0  0  0  0  0  0  0
    7.6674    2.7932   21.4567 H   0  0  0  0  0  0  0  0  0  0  0  0
    5.3848    2.5595   18.7779 H   0  0  0  0  0  0  0  0  0  0  0  0
   10.7684   -3.4676   22.2406 H   0  0  0  0  0  0  0  0  0  0  0  0
    8.4077   -0.2304   23.7947 H   0  0  0  0  0  0  0  0  0  0  0  0
    6.1513    1.6092   16.6127 H   0  0  0  0  0  0  0  0  0  0  0  0
    8.1171   -1.4925   18.4637 H   0  0  0  0  0  0  0  0  0  0  0  0
   14.2110   -0.9332   22.1900 H   0  0  0  0  0  0  0  0  0  0  0  0
   15.0817   -2.2049   23.0703 H   0  0  0  0  0  0  0  0  0  0  0  0
   13.9605   -1.4857   25.2225 H   0  0  0  0  0  0  0  0  0  0  0  0
   14.9178   -0.1777   24.4993 H   0  0  0  0  0  0  0  0  0  0  0  0
    8.3442   -3.6979   22.5684 H   0  0  0  0  0  0  0  0  0  0  0  0
    7.3818   -2.3686   23.2032 H   0  0  0  0  0  0  0  0  0  0  0  0
    7.6805   -0.3200   21.8443 H   0  0  0  0  0  0  0  0  0  0  0  0
  1  2  1  0  0  0  0
  1  3  2  0  0  0  0
  2  4  2  0  0  0  0
  3  5  1  0  0  0  0
  4 11  1  0  0  0  0
  5 11  2  0  0  0  0
  6  9  2  0  0  0  0
  6 12  1  0  0  0  0
  7 13  2  0  0  0  0
  7 15  1  0  0  0  0
  8 13  1  0  0  0  0
  8 17  2  0  0  0  0
  9 22  1  0  0  0  0
 10 14  1  0  0  0  0
 10 22  2  0  0  0  0
 11 12  1  0  0  0  0
 12 14  2  0  0  0  0
 13 21  1  0  0  0  0
 14 23  1  0  0  0  0
 15 16  2  0  0  0  0
 15 25  1  0  0  0  0
 16 17  1  0  0  0  0
 16 26  1  0  0  0  0
 17 27  1  0  0  0  0
 18 21  1  0  0  0  0
 18 23  1  0  0  0  0
 18 24  2  0  0  0  0
 19 20  1  0  0  0  0
 19 25  1  0  0  0  0
 20 26  1  0  0  0  0
  1 28  1  0  0  0  0
  2 29  1  0  0  0  0
  3 30  1  0  0  0  0
  4 31  1  0  0  0  0
  5 32  1  0  0  0  0
  6 33  1  0  0  0  0
  7 34  1  0  0  0  0
  8 35  1  0  0  0  0
  9 36  1  0  0  0  0
 10 37  1  0  0  0  0
 19 38  1  0  0  0  0
 19 39  1  0  0  0  0
 20 40  1  0  0  0  0
 20 41  1  0  0  0  0
 21 42  1  0  0  0  0
 21 43  1  0  0  0  0
 23 44  1  0  0  0  0
M  END
> <series>
3-aminopyridine-like

> <r_inhibition_at_20_uM>

> <r_inhibition_at_50_uM>
0.0

> <r_IC50>

> <f_inhibition_at_20_uM>
-45.13978

> <f_inhibition_at_50_uM>
-10.369000999999999

> <f_avg_IC50>

> <f_avg_pIC50>

> <ASSAYED>
True

> <Hybrid2>
-8.022887

> <docked_fragment>
x0678

> <Mpro-_dock>
-5.700099

> <site>
active-noncovalent

$$$$
LON-WEI-adc59df6-45
  -OEChem-07042000473D

 66 68  0     1  0  0  0  0  0999 V2000
    6.1156    0.1764   19.7474 C   0  0  0  0  0  0  0  0  0  0  0  0
    6.8992   -0.3349   20.7759 C   0  0  0  0  0  0  0  0  0  0  0  0
   13.1299   -1.8097   22.8380 C   0  0  0  0  0  0  0  0  0  0  0  0
   12.8818    0.0173   24.3994 C   0  0  0  0  0  0  0  0  0  0  0  0
   11.8751   -1.5215   22.3014 C   0  0  0  0  0  0  0  0  0  0  0  0
   11.6270    0.3055   23.8627 C   0  0  0  0  0  0  0  0  0  0  0  0
    6.8123   -4.0075   24.2820 C   0  0  0  0  0  0  0  0  0  0  0  0
    6.1340   -4.9779   25.0195 C   0  0  0  0  0  0  0  0  0  0  0  0
    6.7509   -6.6493   23.3876 C   0  0  0  0  0  0  0  0  0  0  0  0
    6.6876    0.2883   18.4904 C   0  0  0  0  0  0  0  0  0  0  0  0
    8.6904   -0.5619   19.2279 C   0  0  0  0  0  0  0  0  0  0  0  0
   13.6333   -1.0403   23.8870 C   0  0  0  0  0  0  0  0  0  0  0  0
    8.2124   -0.7134   20.5196 C   0  0  0  0  0  0  0  0  0  0  0  0
   11.1236   -0.4639   22.8137 C   0  0  0  0  0  0  0  0  0  0  0  0
    7.4598   -4.3580   23.0973 C   0  0  0  0  0  0  0  0  0  0  0  0
    6.1033   -6.2988   24.5724 C   0  0  0  0  0  0  0  0  0  0  0  0
    7.4291   -5.6789   22.6501 C   0  0  0  0  0  0  0  0  0  0  0  0
    9.9226    3.4697   22.7638 C   0  0  0  0  0  0  0  0  0  0  0  0
   10.2570    2.2989   22.2122 C   0  0  0  0  0  0  0  0  0  0  0  0
    9.3054    1.1498   22.2498 C   0  0  0  0  0  0  0  0  0  0  0  0
    8.2691   -2.0106   22.6718 C   0  0  0  0  0  0  0  0  0  0  0  0
   16.0929   -1.2334   23.3786 C   0  0  0  0  0  0  0  0  0  0  0  0
   15.0250   -2.7980   25.0362 C   0  0  0  0  0  0  0  0  0  0  0  0
   15.4334   -0.4193   25.6334 C   0  0  0  0  0  0  0  0  0  0  0  0
    4.8027   -6.8198   26.4940 C   0  0  0  0  0  0  0  0  0  0  0  0
    7.2924   -5.9698   20.2938 C   0  0  0  0  0  0  0  0  0  0  0  0
    9.0903   -1.2736   21.6168 C   0  0  2  0  0  0  0  0  0  0  0  0
   15.0165   -1.3581   24.4785 C   0  0  0  0  0  0  0  0  0  0  0  0
    7.9594   -0.0689   18.2031 N   0  0  0  0  0  0  0  0  0  0  0  0
    8.1451   -3.3625   22.3611 N   0  0  0  0  0  0  0  0  0  0  0  0
    9.8686   -0.1753   22.2770 N   0  0  0  0  0  0  0  0  0  0  0  0
    8.0959    1.3792   22.2288 O   0  0  0  0  0  0  0  0  0  0  0  0
    7.7944   -1.4273   23.6427 O   0  0  0  0  0  0  0  0  0  0  0  0
    5.4422   -7.2464   25.2921 O   0  0  0  0  0  0  0  0  0  0  0  0
    8.0560   -6.0430   21.4956 O   0  0  0  0  0  0  0  0  0  0  0  0
    5.0893    0.4777   19.9241 H   0  0  0  0  0  0  0  0  0  0  0  0
    6.4787   -0.4350   21.7729 H   0  0  0  0  0  0  0  0  0  0  0  0
   13.7076   -2.6370   22.4342 H   0  0  0  0  0  0  0  0  0  0  0  0
   13.2660    0.6214   25.2171 H   0  0  0  0  0  0  0  0  0  0  0  0
   11.4928   -2.1275   21.4838 H   0  0  0  0  0  0  0  0  0  0  0  0
   11.0493    1.1313   24.2703 H   0  0  0  0  0  0  0  0  0  0  0  0
    6.8292   -2.9815   24.6410 H   0  0  0  0  0  0  0  0  0  0  0  0
    5.6313   -4.6985   25.9415 H   0  0  0  0  0  0  0  0  0  0  0  0
    6.7262   -7.6789   23.0393 H   0  0  0  0  0  0  0  0  0  0  0  0
    6.1180    0.6816   17.6548 H   0  0  0  0  0  0  0  0  0  0  0  0
    9.7071   -0.8401   18.9680 H   0  0  0  0  0  0  0  0  0  0  0  0
   10.6084    4.3089   22.7134 H   0  0  0  0  0  0  0  0  0  0  0  0
    8.9798    3.6245   23.2769 H   0  0  0  0  0  0  0  0  0  0  0  0
   11.2029    2.1911   21.6942 H   0  0  0  0  0  0  0  0  0  0  0  0
   17.0907   -1.4554   23.7748 H   0  0  0  0  0  0  0  0  0  0  0  0
   15.9180   -1.9247   22.5469 H   0  0  0  0  0  0  0  0  0  0  0  0
   16.1169   -0.2188   22.9635 H   0  0  0  0  0  0  0  0  0  0  0  0
   15.9940   -3.0692   25.4692 H   0  0  0  0  0  0  0  0  0  0  0  0
   14.2755   -2.9201   25.8270 H   0  0  0  0  0  0  0  0  0  0  0  0
   14.8008   -3.5272   24.2487 H   0  0  0  0  0  0  0  0  0  0  0  0
   16.4243   -0.6854   26.0208 H   0  0  0  0  0  0  0  0  0  0  0  0
   15.4863    0.6254   25.3053 H   0  0  0  0  0  0  0  0  0  0  0  0
   14.7326   -0.4783   26.4743 H   0  0  0  0  0  0  0  0  0  0  0  0
    4.3132   -7.6731   26.9698 H   0  0  0  0  0  0  0  0  0  0  0  0
    4.0660   -6.0468   26.2612 H   0  0  0  0  0  0  0  0  0  0  0  0
    5.5558   -6.4104   27.1714 H   0  0  0  0  0  0  0  0  0  0  0  0
    7.9093   -6.2867   19.4493 H   0  0  0  0  0  0  0  0  0  0  0  0
    6.9475   -4.9439   20.1420 H   0  0  0  0  0  0  0  0  0  0  0  0
    6.4288   -6.6334   20.3804 H   0  0  0  0  0  0  0  0  0  0  0  0
    9.8212   -1.9739   21.1942 H   0  0  0  0  0  0  0  0  0  0  0  0
    8.6005   -3.6705   21.5045 H   0  0  0  0  0  0  0  0  0  0  0  0
  1  2  2  0  0  0  0
  1 10  1  0  0  0  0
  2 13  1  0  0  0  0
  3  5  2  0  0  0  0
  3 12  1  0  0  0  0
  4  6  1  0  0  0  0
  4 12  2  0  0  0  0
  5 14  1  0  0  0  0
  6 14  2  0  0  0  0
  7  8  2  0  0  0  0
  7 15  1  0  0  0  0
  8 16  1  0  0  0  0
  9 16  2  0  0  0  0
  9 17  1  0  0  0  0
 10 29  2  0  0  0  0
 11 13  2  0  0  0  0
 11 29  1  0  0  0  0
 12 28  1  0  0  0  0
 13 27  1  0  0  0  0
 14 31  1  0  0  0  0
 15 17  2  0  0  0  0
 15 30  1  0  0  0  0
 16 34  1  0  0  0  0
 17 35  1  0  0  0  0
 18 19  2  0  0  0  0
 19 20  1  0  0  0  0
 20 31  1  0  0  0  0
 20 32  2  0  0  0  0
 21 27  1  0  0  0  0
 21 30  1  0  0  0  0
 21 33  2  0  0  0  0
 22 28  1  0  0  0  0
 23 28  1  0  0  0  0
 24 28  1  0  0  0  0
 25 34  1  0  0  0  0
 26 35  1  0  0  0  0
 27 31  1  0  0  0  0
  1 36  1  0  0  0  0
  2 37  1  0  0  0  0
  3 38  1  0  0  0  0
  4 39  1  0  0  0  0
  5 40  1  0  0  0  0
  6 41  1  0  0  0  0
  7 42  1  0  0  0  0
  8 43  1  0  0  0  0
  9 44  1  0  0  0  0
 10 45  1  0  0  0  0
 11 46  1  0  0  0  0
 18 47  1  0  0  0  0
 18 48  1  0  0  0  0
 19 49  1  0  0  0  0
 22 50  1  0  0  0  0
 22 51  1  0  0  0  0
 22 52  1  0  0  0  0
 23 53  1  0  0  0  0
 23 54  1  0  0  0  0
 23 55  1  0  0  0  0
 24 56  1  0  0  0  0
 24 57  1  0  0  0  0
 24 58  1  0  0  0  0
 25 59  1  0  0  0  0
 25 60  1  0  0  0  0
 25 61  1  0  0  0  0
 26 62  1  0  0  0  0
 26 63  1  0  0  0  0
 26 64  1  0  0  0  0
 27 65  1  0  0  0  0
 30 66  1  0  0  0  0
M  END
> <series>
3-aminopyridine-like

> <r_inhibition_at_20_uM>
5.0293563187595325

> <r_inhibition_at_50_uM>
45.87330743918001

> <r_IC50>

> <f_inhibition_at_20_uM>
48.913999999999994

> <f_inhibition_at_50_uM>
41.627340000000004

> <f_avg_IC50>
6.474407770575732

> <f_avg_pIC50>
5.188799951375524

> <ASSAYED>
True

> <Hybrid2>
-8.004340

> <docked_fragment>
x0678

> <Mpro-_dock>
-4.052991

> <site>
active-noncovalent

$$$$
LON-WEI-adc59df6-16
  -OEChem-07042000473D

 61 63  0     1  0  0  0  0  0999 V2000
    6.1488    0.7291   20.1536 C   0  0  0  0  0  0  0  0  0  0  0  0
    6.9430    0.1987   21.1641 C   0  0  0  0  0  0  0  0  0  0  0  0
   13.2310   -0.0589   24.2369 C   0  0  0  0  0  0  0  0  0  0  0  0
   13.0545   -2.0385   22.8631 C   0  0  0  0  0  0  0  0  0  0  0  0
   11.9874    0.3723   23.7753 C   0  0  0  0  0  0  0  0  0  0  0  0
   11.8108   -1.6072   22.4016 C   0  0  0  0  0  0  0  0  0  0  0  0
    7.1796   -3.3643   25.2150 C   0  0  0  0  0  0  0  0  0  0  0  0
    6.4466   -4.1450   26.1087 C   0  0  0  0  0  0  0  0  0  0  0  0
    5.5981   -5.4574   24.2663 C   0  0  0  0  0  0  0  0  0  0  0  0
    6.6080    0.6330   18.8499 C   0  0  0  0  0  0  0  0  0  0  0  0
    8.5244   -0.4487   19.5100 C   0  0  0  0  0  0  0  0  0  0  0  0
   13.7646   -1.2643   23.7807 C   0  0  0  0  0  0  0  0  0  0  0  0
    8.1550   -0.4031   20.8446 C   0  0  0  0  0  0  0  0  0  0  0  0
    6.3311   -4.6767   23.3726 C   0  0  0  0  0  0  0  0  0  0  0  0
   11.2773   -0.4018   22.8577 C   0  0  0  0  0  0  0  0  0  0  0  0
    7.1218   -3.6301   23.8469 C   0  0  0  0  0  0  0  0  0  0  0  0
    5.6559   -5.1916   25.6344 C   0  0  0  0  0  0  0  0  0  0  0  0
   10.6722    3.6498   22.4871 C   0  0  0  0  0  0  0  0  0  0  0  0
   10.7753    2.3950   22.0379 C   0  0  0  0  0  0  0  0  0  0  0  0
    9.6723    1.4177   22.2737 C   0  0  0  0  0  0  0  0  0  0  0  0
    8.2250   -1.4882   23.1108 C   0  0  0  0  0  0  0  0  0  0  0  0
    6.2501   -4.9846   21.9126 C   0  0  0  0  0  0  0  0  0  0  0  0
   15.0890   -1.9123   25.8232 C   0  0  0  0  0  0  0  0  0  0  0  0
   16.2143   -0.6953   23.9288 C   0  0  0  0  0  0  0  0  0  0  0  0
   15.5904   -3.0903   23.6918 C   0  0  0  0  0  0  0  0  0  0  0  0
    9.0413   -0.9900   21.9209 C   0  0  2  0  0  0  0  0  0  0  0  0
   15.1356   -1.7395   24.2895 C   0  0  0  0  0  0  0  0  0  0  0  0
    7.7795    0.0557   18.5008 N   0  0  0  0  0  0  0  0  0  0  0  0
    7.8731   -2.8268   22.9564 N   0  0  0  0  0  0  0  0  0  0  0  0
   10.0332    0.0291   22.3961 N   0  0  0  0  0  0  0  0  0  0  0  0
    8.5136    1.8310   22.3259 O   0  0  0  0  0  0  0  0  0  0  0  0
    7.9369   -0.7503   24.0493 O   0  0  0  0  0  0  0  0  0  0  0  0
    4.9525   -5.9416   26.4929 F   0  0  0  0  0  0  0  0  0  0  0  0
    5.2001    1.2025   20.3792 H   0  0  0  0  0  0  0  0  0  0  0  0
    6.6097    0.2586   22.1967 H   0  0  0  0  0  0  0  0  0  0  0  0
   13.7784    0.5518   24.9501 H   0  0  0  0  0  0  0  0  0  0  0  0
   13.4630   -2.9786   22.5018 H   0  0  0  0  0  0  0  0  0  0  0  0
   11.5810    1.3132   24.1379 H   0  0  0  0  0  0  0  0  0  0  0  0
   11.2663   -2.2179   21.6856 H   0  0  0  0  0  0  0  0  0  0  0  0
    7.7922   -2.5511   25.5966 H   0  0  0  0  0  0  0  0  0  0  0  0
    6.4912   -3.9382   27.1739 H   0  0  0  0  0  0  0  0  0  0  0  0
    4.9799   -6.2762   23.9076 H   0  0  0  0  0  0  0  0  0  0  0  0
    6.0256    1.0316   18.0258 H   0  0  0  0  0  0  0  0  0  0  0  0
    9.4591   -0.9058   19.2001 H   0  0  0  0  0  0  0  0  0  0  0  0
   11.4667    4.3627   22.2929 H   0  0  0  0  0  0  0  0  0  0  0  0
    9.8163    3.9973   23.0551 H   0  0  0  0  0  0  0  0  0  0  0  0
   11.6409    2.0927   21.4598 H   0  0  0  0  0  0  0  0  0  0  0  0
    5.4327   -4.4194   21.4507 H   0  0  0  0  0  0  0  0  0  0  0  0
    7.1860   -4.7279   21.4017 H   0  0  0  0  0  0  0  0  0  0  0  0
    6.0761   -6.0542   21.7430 H   0  0  0  0  0  0  0  0  0  0  0  0
   16.0562   -2.2513   26.2123 H   0  0  0  0  0  0  0  0  0  0  0  0
   14.8470   -0.9765   26.3388 H   0  0  0  0  0  0  0  0  0  0  0  0
   14.3344   -2.6528   26.1139 H   0  0  0  0  0  0  0  0  0  0  0  0
   17.2108   -0.9928   24.2729 H   0  0  0  0  0  0  0  0  0  0  0  0
   16.2796   -0.5531   22.8437 H   0  0  0  0  0  0  0  0  0  0  0  0
   15.9875    0.2780   24.3797 H   0  0  0  0  0  0  0  0  0  0  0  0
   16.5709   -3.3859   24.0842 H   0  0  0  0  0  0  0  0  0  0  0  0
   14.8894   -3.8968   23.9371 H   0  0  0  0  0  0  0  0  0  0  0  0
   15.6829   -3.0380   22.6007 H   0  0  0  0  0  0  0  0  0  0  0  0
    9.6168   -1.8324   21.5176 H   0  0  0  0  0  0  0  0  0  0  0  0
    8.1939   -3.2804   22.1036 H   0  0  0  0  0  0  0  0  0  0  0  0
  1  2  2  0  0  0  0
  1 10  1  0  0  0  0
  2 13  1  0  0  0  0
  3  5  2  0  0  0  0
  3 12  1  0  0  0  0
  4  6  1  0  0  0  0
  4 12  2  0  0  0  0
  5 15  1  0  0  0  0
  6 15  2  0  0  0  0
  7  8  2  0  0  0  0
  7 16  1  0  0  0  0
  8 17  1  0  0  0  0
  9 14  1  0  0  0  0
  9 17  2  0  0  0  0
 10 28  2  0  0  0  0
 11 13  2  0  0  0  0
 11 28  1  0  0  0  0
 12 27  1  0  0  0  0
 13 26  1  0  0  0  0
 14 16  2  0  0  0  0
 14 22  1  0  0  0  0
 15 30  1  0  0  0  0
 16 29  1  0  0  0  0
 17 33  1  0  0  0  0
 18 19  2  0  0  0  0
 19 20  1  0  0  0  0
 20 30  1  0  0  0  0
 20 31  2  0  0  0  0
 21 26  1  0  0  0  0
 21 29  1  0  0  0  0
 21 32  2  0  0  0  0
 23 27  1  0  0  0  0
 24 27  1  0  0  0  0
 25 27  1  0  0  0  0
 26 30  1  0  0  0  0
  1 34  1  0  0  0  0
  2 35  1  0  0  0  0
  3 36  1  0  0  0  0
  4 37  1  0  0  0  0
  5 38  1  0  0  0  0
  6 39  1  0  0  0  0
  7 40  1  0  0  0  0
  8 41  1  0  0  0  0
  9 42  1  0  0  0  0
 10 43  1  0  0  0  0
 11 44  1  0  0  0  0
 18 45  1  0  0  0  0
 18 46  1  0  0  0  0
 19 47  1  0  0  0  0
 22 48  1  0  0  0  0
 22 49  1  0  0  0  0
 22 50  1  0  0  0  0
 23 51  1  0  0  0  0
 23 52  1  0  0  0  0
 23 53  1  0  0  0  0
 24 54  1  0  0  0  0
 24 55  1  0  0  0  0
 24 56  1  0  0  0  0
 25 57  1  0  0  0  0
 25 58  1  0  0  0  0
 25 59  1  0  0  0  0
 26 60  1  0  0  0  0
 29 61  1  0  0  0  0
M  END
> <series>
3-aminopyridine-like

> <r_inhibition_at_20_uM>

> <r_inhibition_at_50_uM>
1.370825841

> <r_IC50>

> <f_inhibition_at_20_uM>
5.6117155

> <f_inhibition_at_50_uM>
13.863864999999999

> <f_avg_IC50>

> <f_avg_pIC50>

> <ASSAYED>
True

> <Hybrid2>
-7.989073

> <docked_fragment>
x0678

> <Mpro-_dock>
-5.463501

> <site>
active-noncovalent

$$$$
AGN-NEW-c7b24fe3-4
  -OEChem-07042000473D

 29 30  0     0  0  0  0  0  0999 V2000
    9.5445   -1.0446   18.6912 C   0  0  0  0  0  0  0  0  0  0  0  0
   12.0440    1.1452   24.2752 C   0  0  0  0  0  0  0  0  0  0  0  0
    6.0375    1.1583   19.0271 C   0  0  0  0  0  0  0  0  0  0  0  0
   10.7369    0.6625   24.3388 C   0  0  0  0  0  0  0  0  0  0  0  0
    6.6418    0.7116   20.1969 C   0  0  0  0  0  0  0  0  0  0  0  0
   12.9696    0.5421   23.4235 C   0  0  0  0  0  0  0  0  0  0  0  0
   11.2808   -1.0266   22.6992 C   0  0  0  0  0  0  0  0  0  0  0  0
    6.6433    0.8408   17.8221 C   0  0  0  0  0  0  0  0  0  0  0  0
    8.3428   -0.2931   18.8728 C   0  0  0  0  0  0  0  0  0  0  0  0
   10.3553   -0.4234   23.5509 C   0  0  0  0  0  0  0  0  0  0  0  0
    7.8168   -0.0286   20.1271 C   0  0  0  0  0  0  0  0  0  0  0  0
   12.5880   -0.5438   22.6356 C   0  0  0  0  0  0  0  0  0  0  0  0
    8.0041   -0.2822   22.6262 C   0  0  0  0  0  0  0  0  0  0  0  0
    8.9578   -0.9398   23.6204 C   0  0  0  0  0  0  0  0  0  0  0  0
   10.5204   -1.6550   18.5437 N   0  0  0  0  0  0  0  0  0  0  0  0
    7.7845    0.1241   17.7144 N   0  0  0  0  0  0  0  0  0  0  0  0
    8.4336   -0.4834   21.3168 N   0  0  0  0  0  0  0  0  0  0  0  0
    7.0075    0.3307   22.9952 O   0  0  0  0  0  0  0  0  0  0  0  0
   13.7306   -1.2883   21.5858 Cl  0  0  0  0  0  0  0  0  0  0  0  0
   12.3408    1.9907   24.8890 H   0  0  0  0  0  0  0  0  0  0  0  0
    5.1210    1.7363   19.0575 H   0  0  0  0  0  0  0  0  0  0  0  0
   10.0224    1.1385   25.0054 H   0  0  0  0  0  0  0  0  0  0  0  0
    6.1880    0.9461   21.1563 H   0  0  0  0  0  0  0  0  0  0  0  0
   13.9850    0.9287   23.3844 H   0  0  0  0  0  0  0  0  0  0  0  0
   10.9783   -1.8727   22.0865 H   0  0  0  0  0  0  0  0  0  0  0  0
    6.2113    1.1650   16.8811 H   0  0  0  0  0  0  0  0  0  0  0  0
    8.9418   -2.0272   23.4395 H   0  0  0  0  0  0  0  0  0  0  0  0
    8.5478   -0.7964   24.6337 H   0  0  0  0  0  0  0  0  0  0  0  0
    9.2910   -1.0200   21.2021 H   0  0  0  0  0  0  0  0  0  0  0  0
  1  9  1  0  0  0  0
  1 15  3  0  0  0  0
  2  4  2  0  0  0  0
  2  6  1  0  0  0  0
  3  5  2  0  0  0  0
  3  8  1  0  0  0  0
  4 10  1  0  0  0  0
  5 11  1  0  0  0  0
  6 12  2  0  0  0  0
  7 10  2  0  0  0  0
  7 12  1  0  0  0  0
  8 16  2  0  0  0  0
  9 11  2  0  0  0  0
  9 16  1  0  0  0  0
 10 14  1  0  0  0  0
 11 17  1  0  0  0  0
 12 19  1  0  0  0  0
 13 14  1  0  0  0  0
 13 17  1  0  0  0  0
 13 18  2  0  0  0  0
  2 20  1  0  0  0  0
  3 21  1  0  0  0  0
  4 22  1  0  0  0  0
  5 23  1  0  0  0  0
  6 24  1  0  0  0  0
  7 25  1  0  0  0  0
  8 26  1  0  0  0  0
 14 27  1  0  0  0  0
 14 28  1  0  0  0  0
 17 29  1  0  0  0  0
M  END
> <series>
3-aminopyridine-like

> <r_inhibition_at_20_uM>
0.0

> <r_inhibition_at_50_uM>
0.0

> <r_IC50>

> <f_inhibition_at_20_uM>
-10.232289999999999

> <f_inhibition_at_50_uM>
-15.721029999999999

> <f_avg_IC50>

> <f_avg_pIC50>

> <ASSAYED>
True

> <Hybrid2>
-7.949581

> <docked_fragment>
x0678

> <Mpro-_dock>
-6.011453

> <site>
active-noncovalent

$$$$
DAR-DIA-23aa0b97-12
  -OEChem-07042000473D

 32 34  0     0  0  0  0  0  0999 V2000
   13.2435   -1.4191   25.7904 C   0  0  0  0  0  0  0  0  0  0  0  0
    5.7654    1.2810   19.2392 C   0  0  0  0  0  0  0  0  0  0  0  0
    6.5384    1.3265   20.3980 C   0  0  0  0  0  0  0  0  0  0  0  0
   12.1781   -0.7485   25.1898 C   0  0  0  0  0  0  0  0  0  0  0  0
   14.3519   -1.7906   25.0294 C   0  0  0  0  0  0  0  0  0  0  0  0
   13.3292   -0.8213   23.0668 C   0  0  0  0  0  0  0  0  0  0  0  0
    6.3102    0.7141   18.0948 C   0  0  0  0  0  0  0  0  0  0  0  0
    9.9454    0.0228   20.5798 C   0  0  0  0  0  0  0  0  0  0  0  0
    7.8357    0.7919   20.3422 C   0  0  0  0  0  0  0  0  0  0  0  0
    8.9138    0.6403   21.2538 C   0  0  0  0  0  0  0  0  0  0  0  0
   12.2209   -0.4497   23.8280 C   0  0  0  0  0  0  0  0  0  0  0  0
   14.3947   -1.4918   23.6676 C   0  0  0  0  0  0  0  0  0  0  0  0
    8.2551    0.2541   19.1289 C   0  0  0  0  0  0  0  0  0  0  0  0
    9.7948    0.1814   23.5811 C   0  0  0  0  0  0  0  0  0  0  0  0
    8.9366    1.0640   22.6682 C   0  0  0  0  0  0  0  0  0  0  0  0
    7.5509    0.1853   17.9833 N   0  0  0  0  0  0  0  0  0  0  0  0
    9.5351   -0.2063   19.2921 N   0  0  0  0  0  0  0  0  0  0  0  0
   11.1388    0.2298   23.2195 N   0  0  0  0  0  0  0  0  0  0  0  0
    9.2949   -0.4629   24.4977 O   0  0  0  0  0  0  0  0  0  0  0  0
   15.7621   -1.9502   22.7284 Cl  0  0  0  0  0  0  0  0  0  0  0  0
   13.2101   -1.6518   26.8509 H   0  0  0  0  0  0  0  0  0  0  0  0
    4.7572    1.6814   19.2328 H   0  0  0  0  0  0  0  0  0  0  0  0
    6.1423    1.7620   21.3095 H   0  0  0  0  0  0  0  0  0  0  0  0
   11.3195   -0.4640   25.7931 H   0  0  0  0  0  0  0  0  0  0  0  0
   15.1745   -2.3123   25.5114 H   0  0  0  0  0  0  0  0  0  0  0  0
   13.3594   -0.5863   22.0051 H   0  0  0  0  0  0  0  0  0  0  0  0
    5.7216    0.6692   17.1823 H   0  0  0  0  0  0  0  0  0  0  0  0
   10.9343   -0.2748   20.8999 H   0  0  0  0  0  0  0  0  0  0  0  0
    9.3110    2.1019   22.7667 H   0  0  0  0  0  0  0  0  0  0  0  0
    7.9137    1.0832   23.0929 H   0  0  0  0  0  0  0  0  0  0  0  0
   10.0916   -0.6461   18.5723 H   0  0  0  0  0  0  0  0  0  0  0  0
   11.3697    0.8228   22.4251 H   0  0  0  0  0  0  0  0  0  0  0  0
  1  4  2  0  0  0  0
  1  5  1  0  0  0  0
  2  3  2  0  0  0  0
  2  7  1  0  0  0  0
  3  9  1  0  0  0  0
  4 11  1  0  0  0  0
  5 12  2  0  0  0  0
  6 11  2  0  0  0  0
  6 12  1  0  0  0  0
  7 16  2  0  0  0  0
  8 10  2  0  0  0  0
  8 17  1  0  0  0  0
  9 10  1  0  0  0  0
  9 13  2  0  0  0  0
 10 15  1  0  0  0  0
 11 18  1  0  0  0  0
 12 20  1  0  0  0  0
 13 16  1  0  0  0  0
 13 17  1  0  0  0  0
 14 15  1  0  0  0  0
 14 18  1  0  0  0  0
 14 19  2  0  0  0  0
  1 21  1  0  0  0  0
  2 22  1  0  0  0  0
  3 23  1  0  0  0  0
  4 24  1  0  0  0  0
  5 25  1  0  0  0  0
  6 26  1  0  0  0  0
  7 27  1  0  0  0  0
  8 28  1  0  0  0  0
 15 29  1  0  0  0  0
 15 30  1  0  0  0  0
 17 31  1  0  0  0  0
 18 32  1  0  0  0  0
M  END
> <series>
3-aminopyridine-like

> <r_inhibition_at_20_uM>
0.0

> <r_inhibition_at_50_uM>

> <r_IC50>

> <f_inhibition_at_20_uM>
5.9493315

> <f_inhibition_at_50_uM>
9.3436955

> <f_avg_IC50>

> <f_avg_pIC50>

> <ASSAYED>
True

> <Hybrid2>
-7.947905

> <docked_fragment>
x0678

> <Mpro-_dock>
-7.218801

> <site>
active-noncovalent

$$$$
ALV-UNI-7ff1a6f9-47
  -OEChem-07042000473D

 38 40  0     0  0  0  0  0  0999 V2000
   14.8114   -0.7200   24.8017 C   0  0  0  0  0  0  0  0  0  0  0  0
   14.6997   -2.0950   24.6180 C   0  0  0  0  0  0  0  0  0  0  0  0
   13.9174    0.1442   24.1688 C   0  0  0  0  0  0  0  0  0  0  0  0
   13.6936   -2.6111   23.8007 C   0  0  0  0  0  0  0  0  0  0  0  0
   11.9902    0.4973   22.6979 C   0  0  0  0  0  0  0  0  0  0  0  0
   10.9842   -0.0188   21.8806 C   0  0  0  0  0  0  0  0  0  0  0  0
    5.0909    1.7113   18.2600 C   0  0  0  0  0  0  0  0  0  0  0  0
   11.7664   -2.2580   22.3297 C   0  0  0  0  0  0  0  0  0  0  0  0
    6.2763    0.5746   20.0170 C   0  0  0  0  0  0  0  0  0  0  0  0
    6.0503    1.2375   17.3797 C   0  0  0  0  0  0  0  0  0  0  0  0
   12.8987   -0.3578   23.3427 C   0  0  0  0  0  0  0  0  0  0  0  0
   12.7851   -1.7561   23.1558 C   0  0  0  0  0  0  0  0  0  0  0  0
   10.8725   -1.3938   21.6968 C   0  0  0  0  0  0  0  0  0  0  0  0
    5.2133    1.3690   19.6021 C   0  0  0  0  0  0  0  0  0  0  0  0
    7.1826    0.1515   19.0581 C   0  0  0  0  0  0  0  0  0  0  0  0
    8.5314   -1.0897   20.7858 C   0  0  0  0  0  0  0  0  0  0  0  0
    3.2325    2.6208   20.0084 C   0  0  0  0  0  0  0  0  0  0  0  0
    9.7961   -1.9437   20.8228 C   0  0  0  0  0  0  0  0  0  0  0  0
    7.0967    0.4637   17.7455 N   0  0  0  0  0  0  0  0  0  0  0  0
    8.2609   -0.6568   19.4901 N   0  0  0  0  0  0  0  0  0  0  0  0
    7.8830   -0.8506   21.7995 O   0  0  0  0  0  0  0  0  0  0  0  0
    4.2964    1.8098   20.5053 O   0  0  0  0  0  0  0  0  0  0  0  0
   15.5950   -0.3192   25.4378 H   0  0  0  0  0  0  0  0  0  0  0  0
   15.3963   -2.7671   25.1106 H   0  0  0  0  0  0  0  0  0  0  0  0
   14.0237    1.2155   24.3273 H   0  0  0  0  0  0  0  0  0  0  0  0
   13.6253   -3.6894   23.6712 H   0  0  0  0  0  0  0  0  0  0  0  0
   12.0589    1.5757   22.8270 H   0  0  0  0  0  0  0  0  0  0  0  0
   10.2921    0.6614   21.3910 H   0  0  0  0  0  0  0  0  0  0  0  0
    4.2723    2.3294   17.9080 H   0  0  0  0  0  0  0  0  0  0  0  0
   11.6678   -3.3317   22.1777 H   0  0  0  0  0  0  0  0  0  0  0  0
    6.3846    0.2994   21.0617 H   0  0  0  0  0  0  0  0  0  0  0  0
    6.0001    1.4762   16.3225 H   0  0  0  0  0  0  0  0  0  0  0  0
    2.5734    2.9038   20.8328 H   0  0  0  0  0  0  0  0  0  0  0  0
    2.6711    2.0645   19.2535 H   0  0  0  0  0  0  0  0  0  0  0  0
    3.6537    3.5217   19.5560 H   0  0  0  0  0  0  0  0  0  0  0  0
   10.1621   -2.0554   19.7889 H   0  0  0  0  0  0  0  0  0  0  0  0
    9.5153   -2.9567   21.1547 H   0  0  0  0  0  0  0  0  0  0  0  0
    8.9150   -0.9565   18.7701 H   0  0  0  0  0  0  0  0  0  0  0  0
  1  2  1  0  0  0  0
  1  3  2  0  0  0  0
  2  4  2  0  0  0  0
  3 11  1  0  0  0  0
  4 12  1  0  0  0  0
  5  6  2  0  0  0  0
  5 11  1  0  0  0  0
  6 13  1  0  0  0  0
  7 10  2  0  0  0  0
  7 14  1  0  0  0  0
  8 12  1  0  0  0  0
  8 13  2  0  0  0  0
  9 14  2  0  0  0  0
  9 15  1  0  0  0  0
 10 19  1  0  0  0  0
 11 12  2  0  0  0  0
 13 18  1  0  0  0  0
 14 22  1  0  0  0  0
 15 19  2  0  0  0  0
 15 20  1  0  0  0  0
 16 18  1  0  0  0  0
 16 20  1  0  0  0  0
 16 21  2  0  0  0  0
 17 22  1  0  0  0  0
  1 23  1  0  0  0  0
  2 24  1  0  0  0  0
  3 25  1  0  0  0  0
  4 26  1  0  0  0  0
  5 27  1  0  0  0  0
  6 28  1  0  0  0  0
  7 29  1  0  0  0  0
  8 30  1  0  0  0  0
  9 31  1  0  0  0  0
 10 32  1  0  0  0  0
 17 33  1  0  0  0  0
 17 34  1  0  0  0  0
 17 35  1  0  0  0  0
 18 36  1  0  0  0  0
 18 37  1  0  0  0  0
 20 38  1  0  0  0  0
M  END
> <series>
3-aminopyridine-like

> <r_inhibition_at_20_uM>
0.0

> <r_inhibition_at_50_uM>
17.05

> <r_IC50>

> <f_inhibition_at_20_uM>
3.4712445

> <f_inhibition_at_50_uM>
6.0932985

> <f_avg_IC50>

> <f_avg_pIC50>

> <ASSAYED>
True

> <Hybrid2>
-7.926646

> <docked_fragment>
x0678

> <Mpro-_dock>
-6.484867

> <site>
active-noncovalent

$$$$
LON-WEI-d1c9908a-7
  -OEChem-07042000473D

 62 64  0     1  0  0  0  0  0999 V2000
    6.0297    0.5604   19.2581 C   0  0  0  0  0  0  0  0  0  0  0  0
    6.7839   -0.0394   20.2604 C   0  0  0  0  0  0  0  0  0  0  0  0
   12.4039   -2.2016   23.2874 C   0  0  0  0  0  0  0  0  0  0  0  0
   13.3120   -0.0255   22.7611 C   0  0  0  0  0  0  0  0  0  0  0  0
   11.1678   -1.8101   22.7734 C   0  0  0  0  0  0  0  0  0  0  0  0
   12.0759    0.3660   22.2470 C   0  0  0  0  0  0  0  0  0  0  0  0
    6.9712   -5.4665   21.9251 C   0  0  0  0  0  0  0  0  0  0  0  0
    6.4668   -3.8368   23.6358 C   0  0  0  0  0  0  0  0  0  0  0  0
    6.2359   -6.4255   22.6218 C   0  0  0  0  0  0  0  0  0  0  0  0
    5.7314   -4.7957   24.3325 C   0  0  0  0  0  0  0  0  0  0  0  0
    6.5993    0.6787   18.0006 C   0  0  0  0  0  0  0  0  0  0  0  0
    8.5450   -0.3306   18.6889 C   0  0  0  0  0  0  0  0  0  0  0  0
   13.4761   -1.3093   23.2813 C   0  0  0  0  0  0  0  0  0  0  0  0
    8.0666   -0.4960   19.9787 C   0  0  0  0  0  0  0  0  0  0  0  0
    7.0867   -4.1722   22.4322 C   0  0  0  0  0  0  0  0  0  0  0  0
   11.0037   -0.5263   22.2532 C   0  0  0  0  0  0  0  0  0  0  0  0
    5.6159   -6.0901   23.8254 C   0  0  0  0  0  0  0  0  0  0  0  0
    9.8590    3.3974   22.7601 C   0  0  0  0  0  0  0  0  0  0  0  0
    9.7169    2.0771   22.9145 C   0  0  0  0  0  0  0  0  0  0  0  0
    9.2952    1.2256   21.7637 C   0  0  0  0  0  0  0  0  0  0  0  0
    8.0501   -1.8709   22.0828 C   0  0  0  0  0  0  0  0  0  0  0  0
   15.3667   -2.9591   23.0598 C   0  0  0  0  0  0  0  0  0  0  0  0
   14.6845   -2.1266   25.3352 C   0  0  0  0  0  0  0  0  0  0  0  0
   15.9238   -0.6430   23.7717 C   0  0  0  0  0  0  0  0  0  0  0  0
    4.2908   -6.6151   25.7292 C   0  0  0  0  0  0  0  0  0  0  0  0
    8.9121   -1.1534   21.0471 C   0  0  2  0  0  0  0  0  0  0  0  0
   14.8387   -1.7409   23.8480 C   0  0  0  0  0  0  0  0  0  0  0  0
    7.8420    0.2471   17.6890 N   0  0  0  0  0  0  0  0  0  0  0  0
    7.8327   -3.1993   21.7255 N   0  0  0  0  0  0  0  0  0  0  0  0
    9.7675   -0.1345   21.7387 N   0  0  0  0  0  0  0  0  0  0  0  0
    8.5932    1.7227   20.8827 O   0  0  0  0  0  0  0  0  0  0  0  0
    7.6226   -1.2923   23.0782 O   0  0  0  0  0  0  0  0  0  0  0  0
    4.8984   -7.0257   24.5053 O   0  0  0  0  0  0  0  0  0  0  0  0
    5.0274    0.9235   19.4548 H   0  0  0  0  0  0  0  0  0  0  0  0
    6.3645   -0.1467   21.2571 H   0  0  0  0  0  0  0  0  0  0  0  0
   12.5222   -3.2030   23.6928 H   0  0  0  0  0  0  0  0  0  0  0  0
   14.1418    0.6764   22.7530 H   0  0  0  0  0  0  0  0  0  0  0  0
   10.3392   -2.5139   22.7829 H   0  0  0  0  0  0  0  0  0  0  0  0
   11.9587    1.3693   21.8450 H   0  0  0  0  0  0  0  0  0  0  0  0
    7.4500   -5.7389   20.9879 H   0  0  0  0  0  0  0  0  0  0  0  0
    6.5500   -2.8313   24.0406 H   0  0  0  0  0  0  0  0  0  0  0  0
    6.1495   -7.4320   22.2217 H   0  0  0  0  0  0  0  0  0  0  0  0
    5.2508   -4.5285   25.2697 H   0  0  0  0  0  0  0  0  0  0  0  0
    6.0520    1.1394   17.1848 H   0  0  0  0  0  0  0  0  0  0  0  0
    9.5387   -0.6672   18.4098 H   0  0  0  0  0  0  0  0  0  0  0  0
   10.1883    4.0088   23.5937 H   0  0  0  0  0  0  0  0  0  0  0  0
    9.6505    3.9006   21.8224 H   0  0  0  0  0  0  0  0  0  0  0  0
    9.9516    1.6113   23.8646 H   0  0  0  0  0  0  0  0  0  0  0  0
   16.3393   -3.2877   23.4446 H   0  0  0  0  0  0  0  0  0  0  0  0
   14.6907   -3.8188   23.1232 H   0  0  0  0  0  0  0  0  0  0  0  0
   15.4926   -2.7173   21.9977 H   0  0  0  0  0  0  0  0  0  0  0  0
   15.6335   -2.4419   25.7823 H   0  0  0  0  0  0  0  0  0  0  0  0
   14.3174   -1.2799   25.9271 H   0  0  0  0  0  0  0  0  0  0  0  0
   13.9731   -2.9520   25.4569 H   0  0  0  0  0  0  0  0  0  0  0  0
   16.8748   -0.9978   24.1869 H   0  0  0  0  0  0  0  0  0  0  0  0
   16.1183   -0.3388   22.7366 H   0  0  0  0  0  0  0  0  0  0  0  0
   15.6366    0.2485   24.3415 H   0  0  0  0  0  0  0  0  0  0  0  0
    3.7497   -7.4566   26.1686 H   0  0  0  0  0  0  0  0  0  0  0  0
    3.6039   -5.7872   25.5362 H   0  0  0  0  0  0  0  0  0  0  0  0
    5.0704   -6.2855   26.4200 H   0  0  0  0  0  0  0  0  0  0  0  0
    9.5910   -1.8857   20.5931 H   0  0  0  0  0  0  0  0  0  0  0  0
    8.2604   -3.5062   20.8543 H   0  0  0  0  0  0  0  0  0  0  0  0
  1  2  2  0  0  0  0
  1 11  1  0  0  0  0
  2 14  1  0  0  0  0
  3  5  2  0  0  0  0
  3 13  1  0  0  0  0
  4  6  1  0  0  0  0
  4 13  2  0  0  0  0
  5 16  1  0  0  0  0
  6 16  2  0  0  0  0
  7  9  2  0  0  0  0
  7 15  1  0  0  0  0
  8 10  1  0  0  0  0
  8 15  2  0  0  0  0
  9 17  1  0  0  0  0
 10 17  2  0  0  0  0
 11 28  2  0  0  0  0
 12 14  2  0  0  0  0
 12 28  1  0  0  0  0
 13 27  1  0  0  0  0
 14 26  1  0  0  0  0
 15 29  1  0  0  0  0
 16 30  1  0  0  0  0
 17 33  1  0  0  0  0
 18 19  2  0  0  0  0
 19 20  1  0  0  0  0
 20 30  1  0  0  0  0
 20 31  2  0  0  0  0
 21 26  1  0  0  0  0
 21 29  1  0  0  0  0
 21 32  2  0  0  0  0
 22 27  1  0  0  0  0
 23 27  1  0  0  0  0
 24 27  1  0  0  0  0
 25 33  1  0  0  0  0
 26 30  1  0  0  0  0
  1 34  1  0  0  0  0
  2 35  1  0  0  0  0
  3 36  1  0  0  0  0
  4 37  1  0  0  0  0
  5 38  1  0  0  0  0
  6 39  1  0  0  0  0
  7 40  1  0  0  0  0
  8 41  1  0  0  0  0
  9 42  1  0  0  0  0
 10 43  1  0  0  0  0
 11 44  1  0  0  0  0
 12 45  1  0  0  0  0
 18 46  1  0  0  0  0
 18 47  1  0  0  0  0
 19 48  1  0  0  0  0
 22 49  1  0  0  0  0
 22 50  1  0  0  0  0
 22 51  1  0  0  0  0
 23 52  1  0  0  0  0
 23 53  1  0  0  0  0
 23 54  1  0  0  0  0
 24 55  1  0  0  0  0
 24 56  1  0  0  0  0
 24 57  1  0  0  0  0
 25 58  1  0  0  0  0
 25 59  1  0  0  0  0
 25 60  1  0  0  0  0
 26 61  1  0  0  0  0
 29 62  1  0  0  0  0
M  END
> <series>
3-aminopyridine-like

> <r_inhibition_at_20_uM>
0.0

> <r_inhibition_at_50_uM>
0.0

> <r_IC50>

> <f_inhibition_at_20_uM>

> <f_inhibition_at_50_uM>
12.04676

> <f_avg_IC50>

> <f_avg_pIC50>

> <ASSAYED>
True

> <Hybrid2>
-7.924358

> <docked_fragment>
x0678

> <Mpro-_dock>
-4.682277

> <site>
active-noncovalent

$$$$
AGN-NEW-c7b24fe3-3
  -OEChem-07042000473D

 32 33  0     0  0  0  0  0  0999 V2000
    6.7380    0.4390   18.4229 C   0  0  0  0  0  0  0  0  0  0  0  0
   11.5294   -0.1266   24.5780 C   0  0  0  0  0  0  0  0  0  0  0  0
    4.5587    1.5930   21.7671 C   0  0  0  0  0  0  0  0  0  0  0  0
   12.7903   -0.3603   24.0294 C   0  0  0  0  0  0  0  0  0  0  0  0
   10.3883   -0.5996   23.9301 C   0  0  0  0  0  0  0  0  0  0  0  0
    5.6683    0.7779   21.9610 C   0  0  0  0  0  0  0  0  0  0  0  0
   11.7690   -1.5400   22.1848 C   0  0  0  0  0  0  0  0  0  0  0  0
    4.2494    1.9696   20.4701 C   0  0  0  0  0  0  0  0  0  0  0  0
    6.0311    0.8013   19.6107 C   0  0  0  0  0  0  0  0  0  0  0  0
   12.9101   -1.0670   22.8327 C   0  0  0  0  0  0  0  0  0  0  0  0
   10.5081   -1.3062   22.7335 C   0  0  0  0  0  0  0  0  0  0  0  0
    6.4241    0.3701   20.8675 C   0  0  0  0  0  0  0  0  0  0  0  0
    8.0458   -0.9535   22.2685 C   0  0  0  0  0  0  0  0  0  0  0  0
   14.2588   -1.3178   22.2475 C   0  0  0  0  0  0  0  0  0  0  0  0
    9.2877   -1.8114   22.0404 C   0  0  0  0  0  0  0  0  0  0  0  0
    7.3121    0.1448   17.4582 N   0  0  0  0  0  0  0  0  0  0  0  0
    4.9595    1.5934   19.3830 N   0  0  0  0  0  0  0  0  0  0  0  0
    7.5543   -0.4589   21.0631 N   0  0  0  0  0  0  0  0  0  0  0  0
    7.5903   -0.7613   23.3914 O   0  0  0  0  0  0  0  0  0  0  0  0
   11.4362    0.4236   25.5099 H   0  0  0  0  0  0  0  0  0  0  0  0
    3.9547    1.9226   22.6046 H   0  0  0  0  0  0  0  0  0  0  0  0
   13.6739    0.0116   24.5416 H   0  0  0  0  0  0  0  0  0  0  0  0
    9.4098   -0.4122   24.3645 H   0  0  0  0  0  0  0  0  0  0  0  0
    5.9339    0.4671   22.9681 H   0  0  0  0  0  0  0  0  0  0  0  0
   11.8618   -2.0918   21.2523 H   0  0  0  0  0  0  0  0  0  0  0  0
    3.3934    2.6041   20.2653 H   0  0  0  0  0  0  0  0  0  0  0  0
   14.6689   -2.2627   22.6243 H   0  0  0  0  0  0  0  0  0  0  0  0
   14.2143   -1.3700   21.1519 H   0  0  0  0  0  0  0  0  0  0  0  0
   14.9586   -0.5100   22.4987 H   0  0  0  0  0  0  0  0  0  0  0  0
    9.4630   -1.8748   20.9538 H   0  0  0  0  0  0  0  0  0  0  0  0
    9.0593   -2.8384   22.3697 H   0  0  0  0  0  0  0  0  0  0  0  0
    8.0676   -0.7245   20.2252 H   0  0  0  0  0  0  0  0  0  0  0  0
  1  9  1  0  0  0  0
  1 16  3  0  0  0  0
  2  4  2  0  0  0  0
  2  5  1  0  0  0  0
  3  6  2  0  0  0  0
  3  8  1  0  0  0  0
  4 10  1  0  0  0  0
  5 11  2  0  0  0  0
  6 12  1  0  0  0  0
  7 10  2  0  0  0  0
  7 11  1  0  0  0  0
  8 17  2  0  0  0  0
  9 12  2  0  0  0  0
  9 17  1  0  0  0  0
 10 14  1  0  0  0  0
 11 15  1  0  0  0  0
 12 18  1  0  0  0  0
 13 15  1  0  0  0  0
 13 18  1  0  0  0  0
 13 19  2  0  0  0  0
  2 20  1  0  0  0  0
  3 21  1  0  0  0  0
  4 22  1  0  0  0  0
  5 23  1  0  0  0  0
  6 24  1  0  0  0  0
  7 25  1  0  0  0  0
  8 26  1  0  0  0  0
 14 27  1  0  0  0  0
 14 28  1  0  0  0  0
 14 29  1  0  0  0  0
 15 30  1  0  0  0  0
 15 31  1  0  0  0  0
 18 32  1  0  0  0  0
M  END
> <series>
3-aminopyridine-like

> <r_inhibition_at_20_uM>
0.0

> <r_inhibition_at_50_uM>

> <r_IC50>

> <f_inhibition_at_20_uM>
8.399017

> <f_inhibition_at_50_uM>
-5.939392

> <f_avg_IC50>

> <f_avg_pIC50>

> <ASSAYED>
True

> <Hybrid2>
-7.894127

> <docked_fragment>
x0678

> <Mpro-_dock>
-6.236771

> <site>
active-noncovalent

$$$$
ALP-POS-95b75b4d-6
  -OEChem-07042000473D

 29 30  0     0  0  0  0  0  0999 V2000
    5.8054    0.8991   17.8780 C   0  0  0  0  0  0  0  0  0  0  0  0
    6.6810    0.0238   18.5203 C   0  0  0  0  0  0  0  0  0  0  0  0
    4.8202    1.5620   18.6098 C   0  0  0  0  0  0  0  0  0  0  0  0
    5.5861    0.4740   20.6264 C   0  0  0  0  0  0  0  0  0  0  0  0
    6.5714   -0.1888   19.8945 C   0  0  0  0  0  0  0  0  0  0  0  0
    4.7105    1.3494   19.9840 C   0  0  0  0  0  0  0  0  0  0  0  0
   12.3855    0.6113   23.3700 C   0  0  0  0  0  0  0  0  0  0  0  0
   12.1057    0.9633   24.6319 C   0  0  0  0  0  0  0  0  0  0  0  0
    9.8172    0.3177   24.4741 C   0  0  0  0  0  0  0  0  0  0  0  0
    9.9298   -0.0822   23.1991 C   0  0  0  0  0  0  0  0  0  0  0  0
   11.2737    0.0456   22.5440 C   0  0  0  0  0  0  0  0  0  0  0  0
    8.7753   -0.4599   21.0975 C   0  0  0  0  0  0  0  0  0  0  0  0
    7.5163   -1.1350   20.5870 C   0  0  0  0  0  0  0  0  0  0  0  0
   10.8647    0.8302   25.1906 N   0  0  0  0  0  0  0  0  0  0  0  0
    8.8945   -0.5929   22.4786 N   0  0  0  0  0  0  0  0  0  0  0  0
   11.4682   -0.2946   21.3819 O   0  0  0  0  0  0  0  0  0  0  0  0
    9.5733    0.1258   20.3704 O   0  0  0  0  0  0  0  0  0  0  0  0
    3.4941    2.1667   20.8863 Cl  0  0  0  0  0  0  0  0  0  0  0  0
    5.8910    1.0643   16.8078 H   0  0  0  0  0  0  0  0  0  0  0  0
    7.4456   -0.4885   17.9421 H   0  0  0  0  0  0  0  0  0  0  0  0
    4.1444    2.2412   18.0959 H   0  0  0  0  0  0  0  0  0  0  0  0
    5.5051    0.3052   21.6977 H   0  0  0  0  0  0  0  0  0  0  0  0
   13.3696    0.7192   22.9330 H   0  0  0  0  0  0  0  0  0  0  0  0
   12.8501    1.3804   25.2983 H   0  0  0  0  0  0  0  0  0  0  0  0
    8.8911    0.2658   25.0340 H   0  0  0  0  0  0  0  0  0  0  0  0
    7.8027   -1.9398   19.8983 H   0  0  0  0  0  0  0  0  0  0  0  0
    7.0063   -1.6135   21.4325 H   0  0  0  0  0  0  0  0  0  0  0  0
   10.7193    1.1146   26.1506 H   0  0  0  0  0  0  0  0  0  0  0  0
    8.1751   -1.0977   22.9867 H   0  0  0  0  0  0  0  0  0  0  0  0
  1  2  2  0  0  0  0
  1  3  1  0  0  0  0
  2  5  1  0  0  0  0
  3  6  2  0  0  0  0
  4  5  2  0  0  0  0
  4  6  1  0  0  0  0
  5 13  1  0  0  0  0
  6 18  1  0  0  0  0
  7  8  2  0  0  0  0
  7 11  1  0  0  0  0
  8 14  1  0  0  0  0
  9 10  2  0  0  0  0
  9 14  1  0  0  0  0
 10 11  1  0  0  0  0
 10 15  1  0  0  0  0
 11 16  2  0  0  0  0
 12 13  1  0  0  0  0
 12 15  1  0  0  0  0
 12 17  2  0  0  0  0
  1 19  1  0  0  0  0
  2 20  1  0  0  0  0
  3 21  1  0  0  0  0
  4 22  1  0  0  0  0
  7 23  1  0  0  0  0
  8 24  1  0  0  0  0
  9 25  1  0  0  0  0
 13 26  1  0  0  0  0
 13 27  1  0  0  0  0
 14 28  1  0  0  0  0
 15 29  1  0  0  0  0
M  END
> <series>
3-aminopyridine-like

> <r_inhibition_at_20_uM>

> <r_inhibition_at_50_uM>
0.0

> <r_IC50>

> <f_inhibition_at_20_uM>
0.013454999999999995

> <f_inhibition_at_50_uM>
-2.059689

> <f_avg_IC50>

> <f_avg_pIC50>

> <ASSAYED>
True

> <Hybrid2>
-7.878711

> <docked_fragment>
x0434

> <Mpro-_dock>
-7.742445

> <site>
active-noncovalent

$$$$
JAG-UCB-a3ef7265-9
  -OEChem-07042000473D

 31 32  0     0  0  0  0  0  0999 V2000
   13.2037    1.4835   24.2031 C   0  0  0  0  0  0  0  0  0  0  0  0
   11.8666    1.6300   23.8340 C   0  0  0  0  0  0  0  0  0  0  0  0
   13.8405    0.2528   24.0430 C   0  0  0  0  0  0  0  0  0  0  0  0
   11.1662    0.5459   23.3051 C   0  0  0  0  0  0  0  0  0  0  0  0
    7.6498    0.4574   19.7823 C   0  0  0  0  0  0  0  0  0  0  0  0
   13.1402   -0.8313   23.5141 C   0  0  0  0  0  0  0  0  0  0  0  0
   11.8030   -0.6848   23.1451 C   0  0  0  0  0  0  0  0  0  0  0  0
    8.2676    0.2839   18.5318 C   0  0  0  0  0  0  0  0  0  0  0  0
    6.3239    0.6068   19.4726 C   0  0  0  0  0  0  0  0  0  0  0  0
    9.5103    0.8934   21.4235 C   0  0  0  0  0  0  0  0  0  0  0  0
    9.6971    0.0768   18.2451 C   0  0  0  0  0  0  0  0  0  0  0  0
    5.1065    0.8233   20.2664 C   0  0  0  0  0  0  0  0  0  0  0  0
    9.7347    0.7529   22.9253 C   0  0  0  0  0  0  0  0  0  0  0  0
    7.3919    0.3227   17.5236 N   0  0  0  0  0  0  0  0  0  0  0  0
    8.2281    0.4773   21.0738 N   0  0  0  0  0  0  0  0  0  0  0  0
   10.3827    1.3209   20.6743 O   0  0  0  0  0  0  0  0  0  0  0  0
    6.1573    0.5282   18.1276 O   0  0  0  0  0  0  0  0  0  0  0  0
   13.9920   -2.3272   23.3439 Cl  0  0  0  0  0  0  0  0  0  0  0  0
   10.9105   -2.0184   22.4851 Cl  0  0  0  0  0  0  0  0  0  0  0  0
   13.7486    2.3274   24.6155 H   0  0  0  0  0  0  0  0  0  0  0  0
   11.3804    2.5935   23.9636 H   0  0  0  0  0  0  0  0  0  0  0  0
   14.8831    0.1569   24.3363 H   0  0  0  0  0  0  0  0  0  0  0  0
    9.9540   -0.9965   18.2429 H   0  0  0  0  0  0  0  0  0  0  0  0
    9.9901    0.4905   17.2636 H   0  0  0  0  0  0  0  0  0  0  0  0
   10.3477    0.5726   18.9878 H   0  0  0  0  0  0  0  0  0  0  0  0
    4.9039    1.8998   20.4097 H   0  0  0  0  0  0  0  0  0  0  0  0
    4.2111    0.3797   19.7926 H   0  0  0  0  0  0  0  0  0  0  0  0
    5.1720    0.3638   21.2704 H   0  0  0  0  0  0  0  0  0  0  0  0
    9.1212   -0.0868   23.2872 H   0  0  0  0  0  0  0  0  0  0  0  0
    9.3394    1.6543   23.4189 H   0  0  0  0  0  0  0  0  0  0  0  0
    7.6383    0.1492   21.8358 H   0  0  0  0  0  0  0  0  0  0  0  0
  1  2  2  0  0  0  0
  1  3  1  0  0  0  0
  2  4  1  0  0  0  0
  3  6  2  0  0  0  0
  4  7  2  0  0  0  0
  4 13  1  0  0  0  0
  5  8  1  0  0  0  0
  5  9  2  0  0  0  0
  5 15  1  0  0  0  0
  6  7  1  0  0  0  0
  6 18  1  0  0  0  0
  7 19  1  0  0  0  0
  8 11  1  0  0  0  0
  8 14  2  0  0  0  0
  9 12  1  0  0  0  0
  9 17  1  0  0  0  0
 10 13  1  0  0  0  0
 10 15  1  0  0  0  0
 10 16  2  0  0  0  0
 14 17  1  0  0  0  0
  1 20  1  0  0  0  0
  2 21  1  0  0  0  0
  3 22  1  0  0  0  0
 11 23  1  0  0  0  0
 11 24  1  0  0  0  0
 11 25  1  0  0  0  0
 12 26  1  0  0  0  0
 12 27  1  0  0  0  0
 12 28  1  0  0  0  0
 13 29  1  0  0  0  0
 13 30  1  0  0  0  0
 15 31  1  0  0  0  0
M  END
> <series>
3-aminopyridine-like

> <r_inhibition_at_20_uM>

> <r_inhibition_at_50_uM>
0.0

> <r_IC50>

> <f_inhibition_at_20_uM>
-2.3037822500000003

> <f_inhibition_at_50_uM>
-6.85461825

> <f_avg_IC50>

> <f_avg_pIC50>

> <ASSAYED>
True

> <Hybrid2>
-7.873509

> <docked_fragment>
x0678

> <Mpro-_dock>
-7.043494

> <site>
active-noncovalent

$$$$
ALV-UNI-7ff1a6f9-46
  -OEChem-07042000473D

 37 39  0     0  0  0  0  0  0999 V2000
   15.4861   -0.3785   24.6043 C   0  0  0  0  0  0  0  0  0  0  0  0
   15.3686   -1.7628   24.5229 C   0  0  0  0  0  0  0  0  0  0  0  0
   14.5675    0.4404   23.9469 C   0  0  0  0  0  0  0  0  0  0  0  0
   14.3321   -2.3337   23.7838 C   0  0  0  0  0  0  0  0  0  0  0  0
   12.5843    0.6920   22.5305 C   0  0  0  0  0  0  0  0  0  0  0  0
   11.5478    0.1212   21.7914 C   0  0  0  0  0  0  0  0  0  0  0  0
    5.5169    1.6014   18.2885 C   0  0  0  0  0  0  0  0  0  0  0  0
   12.3489   -2.0821   22.3673 C   0  0  0  0  0  0  0  0  0  0  0  0
    6.7705    0.5898   20.0744 C   0  0  0  0  0  0  0  0  0  0  0  0
    6.4419    1.0646   17.4075 C   0  0  0  0  0  0  0  0  0  0  0  0
   13.5179   -0.1170   23.1985 C   0  0  0  0  0  0  0  0  0  0  0  0
   13.3985   -1.5247   23.1157 C   0  0  0  0  0  0  0  0  0  0  0  0
   11.4303   -1.2632   21.7100 C   0  0  0  0  0  0  0  0  0  0  0  0
    5.6915    1.3548   19.6456 C   0  0  0  0  0  0  0  0  0  0  0  0
    7.6393    0.0982   19.1135 C   0  0  0  0  0  0  0  0  0  0  0  0
    9.0553   -1.0200   20.8712 C   0  0  0  0  0  0  0  0  0  0  0  0
   10.3213   -1.8716   20.9195 C   0  0  0  0  0  0  0  0  0  0  0  0
    4.7253    1.9087   20.6367 C   0  0  0  0  0  0  0  0  0  0  0  0
    7.5024    0.3167   17.7864 N   0  0  0  0  0  0  0  0  0  0  0  0
    8.7344   -0.6794   19.5596 N   0  0  0  0  0  0  0  0  0  0  0  0
    8.4465   -0.7086   21.8898 O   0  0  0  0  0  0  0  0  0  0  0  0
    3.7182    2.6385   20.0714 F   0  0  0  0  0  0  0  0  0  0  0  0
    4.0960    0.9517   21.3814 F   0  0  0  0  0  0  0  0  0  0  0  0
    5.3187    2.7430   21.5397 F   0  0  0  0  0  0  0  0  0  0  0  0
   16.2934    0.0649   25.1795 H   0  0  0  0  0  0  0  0  0  0  0  0
   16.0844   -2.3996   25.0344 H   0  0  0  0  0  0  0  0  0  0  0  0
   14.6788    1.5200   24.0250 H   0  0  0  0  0  0  0  0  0  0  0  0
   14.2598   -3.4183   23.7338 H   0  0  0  0  0  0  0  0  0  0  0  0
   12.6570    1.7767   22.5802 H   0  0  0  0  0  0  0  0  0  0  0  0
   10.8366    0.7663   21.2822 H   0  0  0  0  0  0  0  0  0  0  0  0
    4.6856    2.1942   17.9224 H   0  0  0  0  0  0  0  0  0  0  0  0
   12.2454   -3.1637   22.2957 H   0  0  0  0  0  0  0  0  0  0  0  0
    6.9220    0.3874   21.1305 H   0  0  0  0  0  0  0  0  0  0  0  0
    6.3507    1.2279   16.3387 H   0  0  0  0  0  0  0  0  0  0  0  0
   10.6470   -2.0569   19.8827 H   0  0  0  0  0  0  0  0  0  0  0  0
   10.0546   -2.8581   21.3330 H   0  0  0  0  0  0  0  0  0  0  0  0
    9.3603   -1.0306   18.8377 H   0  0  0  0  0  0  0  0  0  0  0  0
  1  2  1  0  0  0  0
  1  3  2  0  0  0  0
  2  4  2  0  0  0  0
  3 11  1  0  0  0  0
  4 12  1  0  0  0  0
  5  6  2  0  0  0  0
  5 11  1  0  0  0  0
  6 13  1  0  0  0  0
  7 10  2  0  0  0  0
  7 14  1  0  0  0  0
  8 12  1  0  0  0  0
  8 13  2  0  0  0  0
  9 14  2  0  0  0  0
  9 15  1  0  0  0  0
 10 19  1  0  0  0  0
 11 12  2  0  0  0  0
 13 17  1  0  0  0  0
 14 18  1  0  0  0  0
 15 19  2  0  0  0  0
 15 20  1  0  0  0  0
 16 17  1  0  0  0  0
 16 20  1  0  0  0  0
 16 21  2  0  0  0  0
 18 22  1  0  0  0  0
 18 23  1  0  0  0  0
 18 24  1  0  0  0  0
  1 25  1  0  0  0  0
  2 26  1  0  0  0  0
  3 27  1  0  0  0  0
  4 28  1  0  0  0  0
  5 29  1  0  0  0  0
  6 30  1  0  0  0  0
  7 31  1  0  0  0  0
  8 32  1  0  0  0  0
  9 33  1  0  0  0  0
 10 34  1  0  0  0  0
 17 35  1  0  0  0  0
 17 36  1  0  0  0  0
 20 37  1  0  0  0  0
M  END
> <series>
3-aminopyridine-like

> <r_inhibition_at_20_uM>
10.9925

> <r_inhibition_at_50_uM>
29.335

> <r_IC50>

> <f_inhibition_at_20_uM>
-2.5522446000000003

> <f_inhibition_at_50_uM>
3.4262504999999996

> <f_avg_IC50>

> <f_avg_pIC50>

> <ASSAYED>
True

> <Hybrid2>
-7.761757

> <docked_fragment>
x0678

> <Mpro-_dock>
-5.203538

> <site>
active-noncovalent

$$$$
GAB-REV-70cc3ca5-20
  -OEChem-07042000473D

 36 37  0     0  0  0  0  0  0999 V2000
   10.3295   -1.6000   24.5900 C   0  0  0  0  0  0  0  0  0  0  0  0
   11.1326   -1.9722   22.3419 C   0  0  0  0  0  0  0  0  0  0  0  0
   11.6409   -1.4155   25.0279 C   0  0  0  0  0  0  0  0  0  0  0  0
   12.4440   -1.7877   22.7798 C   0  0  0  0  0  0  0  0  0  0  0  0
    5.5806    1.5693   18.9576 C   0  0  0  0  0  0  0  0  0  0  0  0
    6.1358    1.1404   17.7628 C   0  0  0  0  0  0  0  0  0  0  0  0
    7.4863   -0.3795   18.8326 C   0  0  0  0  0  0  0  0  0  0  0  0
   10.0753   -1.8784   23.2470 C   0  0  0  0  0  0  0  0  0  0  0  0
    6.0236    0.9722   20.1326 C   0  0  0  0  0  0  0  0  0  0  0  0
    6.9945   -0.0216   20.0776 C   0  0  0  0  0  0  0  0  0  0  0  0
   12.6981   -1.5093   24.1229 C   0  0  0  0  0  0  0  0  0  0  0  0
    8.4403   -1.6623   21.3278 C   0  0  0  0  0  0  0  0  0  0  0  0
    5.4425    1.4157   21.4350 C   0  0  0  0  0  0  0  0  0  0  0  0
    8.6734   -2.0765   22.7786 C   0  0  0  0  0  0  0  0  0  0  0  0
    7.0806    0.1779   17.6697 N   0  0  0  0  0  0  0  0  0  0  0  0
   14.0882   -0.9731   26.3331 N   0  0  0  0  0  0  0  0  0  0  0  0
    7.4775   -0.6595   21.2450 N   0  0  0  0  0  0  0  0  0  0  0  0
    9.0515   -2.1837   20.4007 O   0  0  0  0  0  0  0  0  0  0  0  0
   15.0555   -2.5359   24.5254 O   0  0  0  0  0  0  0  0  0  0  0  0
   14.8671   -0.0689   24.0499 O   0  0  0  0  0  0  0  0  0  0  0  0
   14.3395   -1.2762   24.6704 S   0  0  0  0  0  0  0  0  0  0  0  0
    9.5122   -1.5254   25.3023 H   0  0  0  0  0  0  0  0  0  0  0  0
   10.9441   -2.1892   21.2938 H   0  0  0  0  0  0  0  0  0  0  0  0
   11.8280   -1.1995   26.0765 H   0  0  0  0  0  0  0  0  0  0  0  0
   13.2602   -1.8634   22.0663 H   0  0  0  0  0  0  0  0  0  0  0  0
    4.8248    2.3473   18.9662 H   0  0  0  0  0  0  0  0  0  0  0  0
    5.8246    1.5744   16.8184 H   0  0  0  0  0  0  0  0  0  0  0  0
    8.2451   -1.1489   18.7246 H   0  0  0  0  0  0  0  0  0  0  0  0
    4.5592    0.8151   21.6810 H   0  0  0  0  0  0  0  0  0  0  0  0
    6.1712    1.3154   22.2488 H   0  0  0  0  0  0  0  0  0  0  0  0
    5.1482    2.4719   21.3984 H   0  0  0  0  0  0  0  0  0  0  0  0
    8.3808   -3.1345   22.8818 H   0  0  0  0  0  0  0  0  0  0  0  0
    7.9746   -1.5070   23.4133 H   0  0  0  0  0  0  0  0  0  0  0  0
   14.3651   -1.7012   27.0029 H   0  0  0  0  0  0  0  0  0  0  0  0
   14.2349   -0.0160   26.6761 H   0  0  0  0  0  0  0  0  0  0  0  0
    7.0742   -0.3493   22.1266 H   0  0  0  0  0  0  0  0  0  0  0  0
  1  3  2  0  0  0  0
  1  8  1  0  0  0  0
  2  4  1  0  0  0  0
  2  8  2  0  0  0  0
  3 11  1  0  0  0  0
  4 11  2  0  0  0  0
  5  6  2  0  0  0  0
  5  9  1  0  0  0  0
  6 15  1  0  0  0  0
  7 10  1  0  0  0  0
  7 15  2  0  0  0  0
  8 14  1  0  0  0  0
  9 10  2  0  0  0  0
  9 13  1  0  0  0  0
 10 17  1  0  0  0  0
 11 21  1  0  0  0  0
 12 14  1  0  0  0  0
 12 17  1  0  0  0  0
 12 18  2  0  0  0  0
 16 21  1  0  0  0  0
 19 21  2  0  0  0  0
 20 21  2  0  0  0  0
  1 22  1  0  0  0  0
  2 23  1  0  0  0  0
  3 24  1  0  0  0  0
  4 25  1  0  0  0  0
  5 26  1  0  0  0  0
  6 27  1  0  0  0  0
  7 28  1  0  0  0  0
 13 29  1  0  0  0  0
 13 30  1  0  0  0  0
 13 31  1  0  0  0  0
 14 32  1  0  0  0  0
 14 33  1  0  0  0  0
 16 34  1  0  0  0  0
 16 35  1  0  0  0  0
 17 36  1  0  0  0  0
M  END
> <series>
3-aminopyridine-like

> <r_inhibition_at_20_uM>
6.415

> <r_inhibition_at_50_uM>
-0.9400000000000002

> <r_IC50>

> <f_inhibition_at_20_uM>
4.7612595

> <f_inhibition_at_50_uM>
10.89574

> <f_avg_IC50>

> <f_avg_pIC50>

> <ASSAYED>
True

> <Hybrid2>
-7.737815

> <docked_fragment>
x0678

> <Mpro-_dock>
-5.082332

> <site>
active-noncovalent

$$$$
LON-WEI-b8d98729-40
  -OEChem-07042000473D

 57 59  0     1  0  0  0  0  0999 V2000
    5.9548   -0.3985   19.4880 C   0  0  0  0  0  0  0  0  0  0  0  0
    6.7895   -0.6579   20.5694 C   0  0  0  0  0  0  0  0  0  0  0  0
    6.9029   -2.4642   25.0816 C   0  0  0  0  0  0  0  0  0  0  0  0
   11.9867    0.9530   23.0668 C   0  0  0  0  0  0  0  0  0  0  0  0
   11.9045   -1.2626   22.1068 C   0  0  0  0  0  0  0  0  0  0  0  0
    6.2280   -3.0955   26.1263 C   0  0  0  0  0  0  0  0  0  0  0  0
   13.2537    0.6821   23.5835 C   0  0  0  0  0  0  0  0  0  0  0  0
   13.1715   -1.5335   22.6235 C   0  0  0  0  0  0  0  0  0  0  0  0
    6.5771   -5.2348   25.0591 C   0  0  0  0  0  0  0  0  0  0  0  0
    6.5448   -0.0986   18.2707 C   0  0  0  0  0  0  0  0  0  0  0  0
    8.6599   -0.3011   19.1445 C   0  0  0  0  0  0  0  0  0  0  0  0
    8.1691   -0.6102   20.4028 C   0  0  0  0  0  0  0  0  0  0  0  0
    7.2520   -4.6034   24.0144 C   0  0  0  0  0  0  0  0  0  0  0  0
   11.3121   -0.0194   22.3285 C   0  0  0  0  0  0  0  0  0  0  0  0
    7.4148   -3.2181   24.0256 C   0  0  0  0  0  0  0  0  0  0  0  0
    6.0651   -4.4808   26.1151 C   0  0  0  0  0  0  0  0  0  0  0  0
   13.8461   -0.5611   23.3618 C   0  0  0  0  0  0  0  0  0  0  0  0
    7.6023    2.7519   20.6589 C   0  0  0  0  0  0  0  0  0  0  0  0
    8.1486    1.8549   21.4858 C   0  0  0  0  0  0  0  0  0  0  0  0
    9.6124    1.5703   21.4273 C   0  0  0  0  0  0  0  0  0  0  0  0
    8.3346   -1.1933   22.8422 C   0  0  0  0  0  0  0  0  0  0  0  0
    7.7896   -5.4364   22.8963 C   0  0  0  0  0  0  0  0  0  0  0  0
    4.9098   -4.2659   28.1827 C   0  0  0  0  0  0  0  0  0  0  0  0
   15.0658   -2.3193   25.0748 C   0  0  0  0  0  0  0  0  0  0  0  0
    9.1038   -0.8882   21.5593 C   0  0  2  0  0  0  0  0  0  0  0  0
    7.8806   -0.0430   18.0704 N   0  0  0  0  0  0  0  0  0  0  0  0
    8.0947   -2.5588   22.9741 N   0  0  0  0  0  0  0  0  0  0  0  0
    9.9926    0.2627   21.7903 N   0  0  0  0  0  0  0  0  0  0  0  0
   10.3795    2.4710   21.0864 O   0  0  0  0  0  0  0  0  0  0  0  0
    7.9888   -0.3027   23.6139 O   0  0  0  0  0  0  0  0  0  0  0  0
    5.4070   -5.0969   27.1350 O   0  0  0  0  0  0  0  0  0  0  0  0
   15.4648   -0.9069   24.0220 S   0  0  0  0  0  0  0  0  0  0  0  0
    4.8765   -0.4302   19.5946 H   0  0  0  0  0  0  0  0  0  0  0  0
    6.3566   -0.8963   21.5372 H   0  0  0  0  0  0  0  0  0  0  0  0
    7.0228   -1.3837   25.1007 H   0  0  0  0  0  0  0  0  0  0  0  0
   11.5343    1.9252   23.2459 H   0  0  0  0  0  0  0  0  0  0  0  0
   11.3879   -2.0278   21.5329 H   0  0  0  0  0  0  0  0  0  0  0  0
    5.8318   -2.5028   26.9464 H   0  0  0  0  0  0  0  0  0  0  0  0
   13.7639    1.4524   24.1565 H   0  0  0  0  0  0  0  0  0  0  0  0
   13.6171   -2.5081   22.4401 H   0  0  0  0  0  0  0  0  0  0  0  0
    6.4480   -6.3145   25.0530 H   0  0  0  0  0  0  0  0  0  0  0  0
    5.9372    0.1118   17.3967 H   0  0  0  0  0  0  0  0  0  0  0  0
    9.7274   -0.2493   18.9541 H   0  0  0  0  0  0  0  0  0  0  0  0
    6.5418    2.9722   20.7212 H   0  0  0  0  0  0  0  0  0  0  0  0
    8.1791    3.2786   19.9066 H   0  0  0  0  0  0  0  0  0  0  0  0
    7.5392    1.3624   22.2347 H   0  0  0  0  0  0  0  0  0  0  0  0
    7.0384   -5.5391   22.1050 H   0  0  0  0  0  0  0  0  0  0  0  0
    8.6922   -4.9860   22.4661 H   0  0  0  0  0  0  0  0  0  0  0  0
    8.0677   -6.4376   23.2474 H   0  0  0  0  0  0  0  0  0  0  0  0
    4.4068   -4.8833   28.9309 H   0  0  0  0  0  0  0  0  0  0  0  0
    4.2110   -3.5347   27.7686 H   0  0  0  0  0  0  0  0  0  0  0  0
    5.7477   -3.7424   28.6492 H   0  0  0  0  0  0  0  0  0  0  0  0
   15.9688   -2.6761   25.5761 H   0  0  0  0  0  0  0  0  0  0  0  0
   14.6512   -3.1286   24.4686 H   0  0  0  0  0  0  0  0  0  0  0  0
   14.3313   -2.0247   25.8283 H   0  0  0  0  0  0  0  0  0  0  0  0
    9.7461   -1.7465   21.3271 H   0  0  0  0  0  0  0  0  0  0  0  0
    8.4497   -3.1518   22.2269 H   0  0  0  0  0  0  0  0  0  0  0  0
  1  2  2  0  0  0  0
  1 10  1  0  0  0  0
  2 12  1  0  0  0  0
  3  6  2  0  0  0  0
  3 15  1  0  0  0  0
  4  7  2  0  0  0  0
  4 14  1  0  0  0  0
  5  8  1  0  0  0  0
  5 14  2  0  0  0  0
  6 16  1  0  0  0  0
  7 17  1  0  0  0  0
  8 17  2  0  0  0  0
  9 13  1  0  0  0  0
  9 16  2  0  0  0  0
 10 26  2  0  0  0  0
 11 12  2  0  0  0  0
 11 26  1  0  0  0  0
 12 25  1  0  0  0  0
 13 15  2  0  0  0  0
 13 22  1  0  0  0  0
 14 28  1  0  0  0  0
 15 27  1  0  0  0  0
 16 31  1  0  0  0  0
 17 32  1  0  0  0  0
 18 19  2  0  0  0  0
 19 20  1  0  0  0  0
 20 28  1  0  0  0  0
 20 29  2  0  0  0  0
 21 25  1  0  0  0  0
 21 27  1  0  0  0  0
 21 30  2  0  0  0  0
 23 31  1  0  0  0  0
 24 32  1  0  0  0  0
 25 28  1  0  0  0  0
  1 33  1  0  0  0  0
  2 34  1  0  0  0  0
  3 35  1  0  0  0  0
  4 36  1  0  0  0  0
  5 37  1  0  0  0  0
  6 38  1  0  0  0  0
  7 39  1  0  0  0  0
  8 40  1  0  0  0  0
  9 41  1  0  0  0  0
 10 42  1  0  0  0  0
 11 43  1  0  0  0  0
 18 44  1  0  0  0  0
 18 45  1  0  0  0  0
 19 46  1  0  0  0  0
 22 47  1  0  0  0  0
 22 48  1  0  0  0  0
 22 49  1  0  0  0  0
 23 50  1  0  0  0  0
 23 51  1  0  0  0  0
 23 52  1  0  0  0  0
 24 53  1  0  0  0  0
 24 54  1  0  0  0  0
 24 55  1  0  0  0  0
 25 56  1  0  0  0  0
 27 57  1  0  0  0  0
M  END
> <series>
3-aminopyridine-like

> <r_inhibition_at_20_uM>
0.0

> <r_inhibition_at_50_uM>

> <r_IC50>

> <f_inhibition_at_20_uM>
8.266012

> <f_inhibition_at_50_uM>
22.24457

> <f_avg_IC50>

> <f_avg_pIC50>

> <ASSAYED>
True

> <Hybrid2>
-7.714194

> <docked_fragment>
x0678

> <Mpro-_dock>
-5.075765

> <site>
active-noncovalent

$$$$
DAR-DIA-23aa0b97-11
  -OEChem-07042000473D

 32 34  0     0  0  0  0  0  0999 V2000
    6.8642    0.3230   18.2285 C   0  0  0  0  0  0  0  0  0  0  0  0
    4.9041    1.2266   21.2613 C   0  0  0  0  0  0  0  0  0  0  0  0
   13.3571   -2.5330   22.1689 C   0  0  0  0  0  0  0  0  0  0  0  0
    5.2308    0.9668   19.9304 C   0  0  0  0  0  0  0  0  0  0  0  0
   12.2369   -1.7881   22.5334 C   0  0  0  0  0  0  0  0  0  0  0  0
    5.8770    1.1093   22.2540 C   0  0  0  0  0  0  0  0  0  0  0  0
    7.5033    0.4722   20.5848 C   0  0  0  0  0  0  0  0  0  0  0  0
   14.5179   -2.4042   22.9197 C   0  0  0  0  0  0  0  0  0  0  0  0
   12.1983    0.4999   25.3801 C   0  0  0  0  0  0  0  0  0  0  0  0
    6.5304    0.5896   19.5921 C   0  0  0  0  0  0  0  0  0  0  0  0
   12.3466   -0.9421   23.6488 C   0  0  0  0  0  0  0  0  0  0  0  0
    7.1766    0.7321   21.9157 C   0  0  0  0  0  0  0  0  0  0  0  0
   11.4850   -0.0455   24.3345 C   0  0  0  0  0  0  0  0  0  0  0  0
   13.5707   -0.9101   24.3104 C   0  0  0  0  0  0  0  0  0  0  0  0
    9.5112    0.2502   22.7737 C   0  0  0  0  0  0  0  0  0  0  0  0
    7.1353    0.1067   17.1211 N   0  0  0  0  0  0  0  0  0  0  0  0
   14.6806   -1.6068   24.0009 N   0  0  0  0  0  0  0  0  0  0  0  0
   13.4619   -0.0312   25.3557 N   0  0  0  0  0  0  0  0  0  0  0  0
    8.1635    0.6145   22.9228 N   0  0  0  0  0  0  0  0  0  0  0  0
   10.1734    0.2501   24.0389 N   0  0  0  0  0  0  0  0  0  0  0  0
   10.0568   -0.0310   21.7114 O   0  0  0  0  0  0  0  0  0  0  0  0
    3.8923    1.5212   21.5246 H   0  0  0  0  0  0  0  0  0  0  0  0
   13.3213   -3.2008   21.3145 H   0  0  0  0  0  0  0  0  0  0  0  0
    4.4612    1.0619   19.1683 H   0  0  0  0  0  0  0  0  0  0  0  0
   11.3142   -1.8655   21.9676 H   0  0  0  0  0  0  0  0  0  0  0  0
    5.6109    1.3144   23.2879 H   0  0  0  0  0  0  0  0  0  0  0  0
    8.5182    0.1776   20.3246 H   0  0  0  0  0  0  0  0  0  0  0  0
   15.4008   -2.9778   22.6497 H   0  0  0  0  0  0  0  0  0  0  0  0
   11.9230    1.2184   26.1401 H   0  0  0  0  0  0  0  0  0  0  0  0
   14.2008    0.1909   26.0083 H   0  0  0  0  0  0  0  0  0  0  0  0
    7.8592    0.8189   23.8713 H   0  0  0  0  0  0  0  0  0  0  0  0
    9.5549    0.5124   24.8249 H   0  0  0  0  0  0  0  0  0  0  0  0
  1 10  1  0  0  0  0
  1 16  3  0  0  0  0
  2  4  2  0  0  0  0
  2  6  1  0  0  0  0
  3  5  2  0  0  0  0
  3  8  1  0  0  0  0
  4 10  1  0  0  0  0
  5 11  1  0  0  0  0
  6 12  2  0  0  0  0
  7 10  2  0  0  0  0
  7 12  1  0  0  0  0
  8 17  2  0  0  0  0
  9 13  2  0  0  0  0
  9 18  1  0  0  0  0
 11 13  1  0  0  0  0
 11 14  2  0  0  0  0
 12 19  1  0  0  0  0
 13 20  1  0  0  0  0
 14 17  1  0  0  0  0
 14 18  1  0  0  0  0
 15 19  1  0  0  0  0
 15 20  1  0  0  0  0
 15 21  2  0  0  0  0
  2 22  1  0  0  0  0
  3 23  1  0  0  0  0
  4 24  1  0  0  0  0
  5 25  1  0  0  0  0
  6 26  1  0  0  0  0
  7 27  1  0  0  0  0
  8 28  1  0  0  0  0
  9 29  1  0  0  0  0
 18 30  1  0  0  0  0
 19 31  1  0  0  0  0
 20 32  1  0  0  0  0
M  END
> <series>
3-aminopyridine-like

> <r_inhibition_at_20_uM>
0.0

> <r_inhibition_at_50_uM>
19.905

> <r_IC50>

> <f_inhibition_at_20_uM>

> <f_inhibition_at_50_uM>
47.31524

> <f_avg_IC50>
63.55492520404372

> <f_avg_pIC50>
4.196850788051664

> <ASSAYED>
True

> <Hybrid2>
-7.613406

> <docked_fragment>
x0678

> <Mpro-_dock>
-7.477009

> <site>
active-noncovalent

$$$$
JAG-UCB-a3ef7265-13
  -OEChem-07042000473D

 38 39  0     0  0  0  0  0  0999 V2000
   13.5900   -0.1435   23.7843 C   0  0  0  0  0  0  0  0  0  0  0  0
   11.9465   -1.4694   22.6104 C   0  0  0  0  0  0  0  0  0  0  0  0
   11.3750    0.7414   23.3996 C   0  0  0  0  0  0  0  0  0  0  0  0
    8.3503   -0.3350   19.1280 C   0  0  0  0  0  0  0  0  0  0  0  0
   13.2327   -1.3224   23.1300 C   0  0  0  0  0  0  0  0  0  0  0  0
   12.6611    0.8884   23.9192 C   0  0  0  0  0  0  0  0  0  0  0  0
    7.3982    0.0427   20.0937 C   0  0  0  0  0  0  0  0  0  0  0  0
   11.0177   -0.4375   22.7453 C   0  0  0  0  0  0  0  0  0  0  0  0
    6.4332    0.7116   19.3811 C   0  0  0  0  0  0  0  0  0  0  0  0
    8.6689    0.3341   22.2625 C   0  0  0  0  0  0  0  0  0  0  0  0
   14.2258   -2.4256   22.9860 C   0  0  0  0  0  0  0  0  0  0  0  0
   13.0433    2.1489   24.6187 C   0  0  0  0  0  0  0  0  0  0  0  0
    5.1764    1.3543   19.8097 C   0  0  0  0  0  0  0  0  0  0  0  0
    6.1715    1.2724   16.9455 C   0  0  0  0  0  0  0  0  0  0  0  0
    7.4350   -0.2288   21.5749 C   0  0  0  0  0  0  0  0  0  0  0  0
    8.0201    0.0609   17.8959 N   0  0  0  0  0  0  0  0  0  0  0  0
    6.8495    0.6942   18.0825 N   0  0  0  0  0  0  0  0  0  0  0  0
    9.7312   -0.5845   22.2255 N   0  0  0  0  0  0  0  0  0  0  0  0
    8.6844    1.4507   22.7705 O   0  0  0  0  0  0  0  0  0  0  0  0
   14.5926   -0.0286   24.1894 H   0  0  0  0  0  0  0  0  0  0  0  0
   11.6700   -2.3897   22.1006 H   0  0  0  0  0  0  0  0  0  0  0  0
   10.6523    1.5475   23.5057 H   0  0  0  0  0  0  0  0  0  0  0  0
    9.2716   -0.8823   19.2681 H   0  0  0  0  0  0  0  0  0  0  0  0
   14.1651   -3.1084   23.8423 H   0  0  0  0  0  0  0  0  0  0  0  0
   14.0508   -3.0020   22.0683 H   0  0  0  0  0  0  0  0  0  0  0  0
   15.2498   -2.0344   22.9248 H   0  0  0  0  0  0  0  0  0  0  0  0
   13.4561    2.8719   23.9046 H   0  0  0  0  0  0  0  0  0  0  0  0
   12.1785    2.6064   25.1164 H   0  0  0  0  0  0  0  0  0  0  0  0
   13.7945    1.9606   25.3968 H   0  0  0  0  0  0  0  0  0  0  0  0
    5.3402    2.4121   20.0743 H   0  0  0  0  0  0  0  0  0  0  0  0
    4.4045    1.3224   19.0214 H   0  0  0  0  0  0  0  0  0  0  0  0
    4.7338    0.8543   20.6887 H   0  0  0  0  0  0  0  0  0  0  0  0
    6.5221    2.3015   16.8312 H   0  0  0  0  0  0  0  0  0  0  0  0
    6.4006    0.6888   16.0495 H   0  0  0  0  0  0  0  0  0  0  0  0
    5.0921    1.2522   17.1198 H   0  0  0  0  0  0  0  0  0  0  0  0
    6.5424    0.1981   22.0498 H   0  0  0  0  0  0  0  0  0  0  0  0
    7.3959   -1.3113   21.7506 H   0  0  0  0  0  0  0  0  0  0  0  0
    9.5363   -1.4768   21.7568 H   0  0  0  0  0  0  0  0  0  0  0  0
  1  5  2  0  0  0  0
  1  6  1  0  0  0  0
  2  5  1  0  0  0  0
  2  8  2  0  0  0  0
  3  6  2  0  0  0  0
  3  8  1  0  0  0  0
  4  7  1  0  0  0  0
  4 16  2  0  0  0  0
  5 11  1  0  0  0  0
  6 12  1  0  0  0  0
  7  9  2  0  0  0  0
  7 15  1  0  0  0  0
  8 18  1  0  0  0  0
  9 13  1  0  0  0  0
  9 17  1  0  0  0  0
 10 15  1  0  0  0  0
 10 18  1  0  0  0  0
 10 19  2  0  0  0  0
 14 17  1  0  0  0  0
 16 17  1  0  0  0  0
  1 20  1  0  0  0  0
  2 21  1  0  0  0  0
  3 22  1  0  0  0  0
  4 23  1  0  0  0  0
 11 24  1  0  0  0  0
 11 25  1  0  0  0  0
 11 26  1  0  0  0  0
 12 27  1  0  0  0  0
 12 28  1  0  0  0  0
 12 29  1  0  0  0  0
 13 30  1  0  0  0  0
 13 31  1  0  0  0  0
 13 32  1  0  0  0  0
 14 33  1  0  0  0  0
 14 34  1  0  0  0  0
 14 35  1  0  0  0  0
 15 36  1  0  0  0  0
 15 37  1  0  0  0  0
 18 38  1  0  0  0  0
M  END
> <series>
3-aminopyridine-like

> <r_inhibition_at_20_uM>

> <r_inhibition_at_50_uM>
0.0

> <r_IC50>

> <f_inhibition_at_20_uM>
-12.146806

> <f_inhibition_at_50_uM>
-5.2768265

> <f_avg_IC50>

> <f_avg_pIC50>

> <ASSAYED>
True

> <Hybrid2>
-7.613355

> <docked_fragment>
x0678

> <Mpro-_dock>
-6.734712

> <site>
active-noncovalent

$$$$
BEN-DND-61647d40-14
  -OEChem-07042000473D

 33 35  0     0  0  0  0  0  0999 V2000
    4.1288    1.6643   21.5458 C   0  0  0  0  0  0  0  0  0  0  0  0
    5.0175    0.8212   22.2459 C   0  0  0  0  0  0  0  0  0  0  0  0
   12.7143    0.7981   22.7541 C   0  0  0  0  0  0  0  0  0  0  0  0
    4.2597    1.8636   20.1689 C   0  0  0  0  0  0  0  0  0  0  0  0
    6.0571    0.1588   21.5846 C   0  0  0  0  0  0  0  0  0  0  0  0
   11.6194    0.4777   21.9516 C   0  0  0  0  0  0  0  0  0  0  0  0
   13.2959   -0.1785   23.5627 C   0  0  0  0  0  0  0  0  0  0  0  0
   11.6874   -1.7958   22.7665 C   0  0  0  0  0  0  0  0  0  0  0  0
    5.2904    1.2009   19.5400 C   0  0  0  0  0  0  0  0  0  0  0  0
    6.1714    0.3671   20.2259 C   0  0  0  0  0  0  0  0  0  0  0  0
   11.1059   -0.8192   21.9578 C   0  0  0  0  0  0  0  0  0  0  0  0
   12.7824   -1.4753   23.5689 C   0  0  0  0  0  0  0  0  0  0  0  0
    6.7840    0.3754   18.0087 C   0  0  0  0  0  0  0  0  0  0  0  0
    9.2972   -0.2981   20.2840 C   0  0  0  0  0  0  0  0  0  0  0  0
    8.1708   -1.0489   19.6004 C   0  0  0  0  0  0  0  0  0  0  0  0
    5.6495    1.2163   18.1920 N   0  0  0  0  0  0  0  0  0  0  0  0
    7.0914   -0.1447   19.2979 N   0  0  0  0  0  0  0  0  0  0  0  0
    9.9943   -1.1428   21.1438 N   0  0  0  0  0  0  0  0  0  0  0  0
    7.3628    0.1561   16.9537 O   0  0  0  0  0  0  0  0  0  0  0  0
    9.5221    0.8874   20.0618 O   0  0  0  0  0  0  0  0  0  0  0  0
   13.4998   -2.6803   24.5666 Cl  0  0  0  0  0  0  0  0  0  0  0  0
    3.3309    2.1651   22.0882 H   0  0  0  0  0  0  0  0  0  0  0  0
    4.8903    0.6858   23.3170 H   0  0  0  0  0  0  0  0  0  0  0  0
   13.1141    1.8080   22.7492 H   0  0  0  0  0  0  0  0  0  0  0  0
    3.5782    2.5107   19.6298 H   0  0  0  0  0  0  0  0  0  0  0  0
    6.7358   -0.4869   22.1292 H   0  0  0  0  0  0  0  0  0  0  0  0
   11.1744    1.2471   21.3255 H   0  0  0  0  0  0  0  0  0  0  0  0
   14.1487    0.0860   24.1824 H   0  0  0  0  0  0  0  0  0  0  0  0
   11.2846   -2.8063   22.7685 H   0  0  0  0  0  0  0  0  0  0  0  0
    7.8070   -1.8466   20.2556 H   0  0  0  0  0  0  0  0  0  0  0  0
    8.5506   -1.4964   18.6766 H   0  0  0  0  0  0  0  0  0  0  0  0
    5.1724    1.7440   17.4715 H   0  0  0  0  0  0  0  0  0  0  0  0
    9.6785   -2.1085   21.2037 H   0  0  0  0  0  0  0  0  0  0  0  0
  1  2  1  0  0  0  0
  1  4  2  0  0  0  0
  2  5  2  0  0  0  0
  3  6  2  0  0  0  0
  3  7  1  0  0  0  0
  4  9  1  0  0  0  0
  5 10  1  0  0  0  0
  6 11  1  0  0  0  0
  7 12  2  0  0  0  0
  8 11  2  0  0  0  0
  8 12  1  0  0  0  0
  9 10  2  0  0  0  0
  9 16  1  0  0  0  0
 10 17  1  0  0  0  0
 11 18  1  0  0  0  0
 12 21  1  0  0  0  0
 13 16  1  0  0  0  0
 13 17  1  0  0  0  0
 13 19  2  0  0  0  0
 14 15  1  0  0  0  0
 14 18  1  0  0  0  0
 14 20  2  0  0  0  0
 15 17  1  0  0  0  0
  1 22  1  0  0  0  0
  2 23  1  0  0  0  0
  3 24  1  0  0  0  0
  4 25  1  0  0  0  0
  5 26  1  0  0  0  0
  6 27  1  0  0  0  0
  7 28  1  0  0  0  0
  8 29  1  0  0  0  0
 15 30  1  0  0  0  0
 15 31  1  0  0  0  0
 16 32  1  0  0  0  0
 18 33  1  0  0  0  0
M  END
> <series>
3-aminopyridine-like

> <r_inhibition_at_20_uM>

> <r_inhibition_at_50_uM>
0.0

> <r_IC50>

> <f_inhibition_at_20_uM>
-4.2771705

> <f_inhibition_at_50_uM>
-9.7805215

> <f_avg_IC50>

> <f_avg_pIC50>

> <ASSAYED>
True

> <Hybrid2>
-7.587158

> <docked_fragment>
x0678

> <Mpro-_dock>
-6.471819

> <site>
active-noncovalent

$$$$
BAR-COM-4e090d3a-16
  -OEChem-07042000473D

 43 46  0     0  0  0  0  0  0999 V2000
   13.7171   -0.7479   23.7792 C   0  0  0  0  0  0  0  0  0  0  0  0
   13.3350   -1.6928   22.8269 C   0  0  0  0  0  0  0  0  0  0  0  0
   12.7654    0.1085   24.3329 C   0  0  0  0  0  0  0  0  0  0  0  0
   12.0013   -1.7812   22.4283 C   0  0  0  0  0  0  0  0  0  0  0  0
    6.5838    0.3839   20.7214 C   0  0  0  0  0  0  0  0  0  0  0  0
    7.6866   -0.9483   19.0888 C   0  0  0  0  0  0  0  0  0  0  0  0
    6.6565    0.9947   18.4241 C   0  0  0  0  0  0  0  0  0  0  0  0
    7.3200   -0.7539   20.4108 C   0  0  0  0  0  0  0  0  0  0  0  0
   11.4316    0.0200   23.9343 C   0  0  0  0  0  0  0  0  0  0  0  0
   11.0495   -0.9248   22.9820 C   0  0  0  0  0  0  0  0  0  0  0  0
    6.2415    1.2800   19.7149 C   0  0  0  0  0  0  0  0  0  0  0  0
   10.4868    2.2404   24.4675 C   0  0  0  0  0  0  0  0  0  0  0  0
    9.1823   -1.9251   21.6265 C   0  0  0  0  0  0  0  0  0  0  0  0
    6.8321   -2.9334   21.6970 C   0  0  0  0  0  0  0  0  0  0  0  0
    6.8646   -1.8325   22.7068 C   0  0  0  0  0  0  0  0  0  0  0  0
    7.6975   -1.7236   21.4557 C   0  0  0  0  0  0  0  0  0  0  0  0
   11.6273    2.7448   22.2923 C   0  0  0  0  0  0  0  0  0  0  0  0
   11.5002    3.0651   23.7865 C   0  0  0  0  0  0  0  0  0  0  0  0
    7.3727   -0.1003   18.0838 N   0  0  0  0  0  0  0  0  0  0  0  0
    9.4328    2.6584   25.1299 N   0  0  0  0  0  0  0  0  0  0  0  0
    8.7989    1.5205   25.5752 N   0  0  0  0  0  0  0  0  0  0  0  0
    9.4515    0.4299   25.1921 N   0  0  0  0  0  0  0  0  0  0  0  0
   10.5062    0.8825   24.4999 N   0  0  0  0  0  0  0  0  0  0  0  0
    9.7196   -1.0359   22.5637 N   0  0  0  0  0  0  0  0  0  0  0  0
    9.7767   -2.7876   20.9879 O   0  0  0  0  0  0  0  0  0  0  0  0
    5.2464    2.8330   20.0956 Br  0  0  0  0  0  0  0  0  0  0  0  0
   14.7557   -0.6791   24.0894 H   0  0  0  0  0  0  0  0  0  0  0  0
   14.0762   -2.3595   22.3959 H   0  0  0  0  0  0  0  0  0  0  0  0
   13.0785    0.8399   25.0742 H   0  0  0  0  0  0  0  0  0  0  0  0
   11.7163   -2.5219   21.6852 H   0  0  0  0  0  0  0  0  0  0  0  0
    6.2800    0.5667   21.7493 H   0  0  0  0  0  0  0  0  0  0  0  0
    8.2623   -1.8176   18.7854 H   0  0  0  0  0  0  0  0  0  0  0  0
    6.4220    1.6534   17.5930 H   0  0  0  0  0  0  0  0  0  0  0  0
    7.2938   -3.8766   21.9662 H   0  0  0  0  0  0  0  0  0  0  0  0
    5.9340   -3.0415   21.0994 H   0  0  0  0  0  0  0  0  0  0  0  0
    5.9882   -1.1999   22.7892 H   0  0  0  0  0  0  0  0  0  0  0  0
    7.3484   -2.0344   23.6557 H   0  0  0  0  0  0  0  0  0  0  0  0
   11.8492    1.6829   22.1413 H   0  0  0  0  0  0  0  0  0  0  0  0
   12.4276    3.3280   21.8263 H   0  0  0  0  0  0  0  0  0  0  0  0
   10.6930    2.9707   21.7671 H   0  0  0  0  0  0  0  0  0  0  0  0
   11.2764    4.1454   23.8917 H   0  0  0  0  0  0  0  0  0  0  0  0
   12.4980    2.9427   24.2534 H   0  0  0  0  0  0  0  0  0  0  0  0
    9.0537   -0.3874   22.9960 H   0  0  0  0  0  0  0  0  0  0  0  0
  1  2  1  0  0  0  0
  1  3  2  0  0  0  0
  2  4  2  0  0  0  0
  3  9  1  0  0  0  0
  4 10  1  0  0  0  0
  5  8  2  0  0  0  0
  5 11  1  0  0  0  0
  6  8  1  0  0  0  0
  6 19  2  0  0  0  0
  7 11  2  0  0  0  0
  7 19  1  0  0  0  0
  8 16  1  0  0  0  0
  9 10  2  0  0  0  0
  9 23  1  0  0  0  0
 10 24  1  0  0  0  0
 11 26  1  0  0  0  0
 12 18  1  0  0  0  0
 12 20  2  0  0  0  0
 12 23  1  0  0  0  0
 13 16  1  0  0  0  0
 13 24  1  0  0  0  0
 13 25  2  0  0  0  0
 14 15  1  0  0  0  0
 14 16  1  0  0  0  0
 15 16  1  0  0  0  0
 17 18  1  0  0  0  0
 20 21  1  0  0  0  0
 21 22  2  0  0  0  0
 22 23  1  0  0  0  0
  1 27  1  0  0  0  0
  2 28  1  0  0  0  0
  3 29  1  0  0  0  0
  4 30  1  0  0  0  0
  5 31  1  0  0  0  0
  6 32  1  0  0  0  0
  7 33  1  0  0  0  0
 14 34  1  0  0  0  0
 14 35  1  0  0  0  0
 15 36  1  0  0  0  0
 15 37  1  0  0  0  0
 17 38  1  0  0  0  0
 17 39  1  0  0  0  0
 17 40  1  0  0  0  0
 18 41  1  0  0  0  0
 18 42  1  0  0  0  0
 24 43  1  0  0  0  0
M  END
> <series>
3-aminopyridine-like

> <r_inhibition_at_20_uM>
0.0

> <r_inhibition_at_50_uM>
0.0

> <r_IC50>

> <f_inhibition_at_20_uM>

> <f_inhibition_at_50_uM>
10.204080000000001

> <f_avg_IC50>

> <f_avg_pIC50>

> <ASSAYED>
True

> <Hybrid2>
-7.572135

> <docked_fragment>
x0678

> <Mpro-_dock>
-4.299316

> <site>
active-noncovalent

$$$$
LON-WEI-adc59df6-43
  -OEChem-07042000473D

 61 64  0     1  0  0  0  0  0999 V2000
    5.2147    0.7661   19.0716 C   0  0  0  0  0  0  0  0  0  0  0  0
    5.7220    0.7276   20.3656 C   0  0  0  0  0  0  0  0  0  0  0  0
   11.5109   -0.3319   23.9303 C   0  0  0  0  0  0  0  0  0  0  0  0
   11.8174   -1.8946   22.1134 C   0  0  0  0  0  0  0  0  0  0  0  0
   10.1533   -0.2412   23.6232 C   0  0  0  0  0  0  0  0  0  0  0  0
   10.4597   -1.8039   21.8063 C   0  0  0  0  0  0  0  0  0  0  0  0
    8.7220    4.2343   24.7175 C   0  0  0  0  0  0  0  0  0  0  0  0
    9.4620    5.3191   25.1938 C   0  0  0  0  0  0  0  0  0  0  0  0
   10.4298    3.7453   23.0525 C   0  0  0  0  0  0  0  0  0  0  0  0
    6.0951    0.5529   18.0232 C   0  0  0  0  0  0  0  0  0  0  0  0
    7.8722    0.2798   19.4534 C   0  0  0  0  0  0  0  0  0  0  0  0
   12.3429   -1.1586   23.1753 C   0  0  0  0  0  0  0  0  0  0  0  0
    7.0751    0.4804   20.5688 C   0  0  0  0  0  0  0  0  0  0  0  0
    9.6277   -0.9772   22.5613 C   0  0  0  0  0  0  0  0  0  0  0  0
    9.2031    3.4518   23.6531 C   0  0  0  0  0  0  0  0  0  0  0  0
   10.6700    5.5876   24.5835 C   0  0  0  0  0  0  0  0  0  0  0  0
   11.1410    4.8217   23.5416 C   0  0  0  0  0  0  0  0  0  0  0  0
    5.1936   -2.7640   21.4544 C   0  0  0  0  0  0  0  0  0  0  0  0
    5.9406   -1.8113   22.0213 C   0  0  0  0  0  0  0  0  0  0  0  0
    7.3906   -2.0477   22.2835 C   0  0  0  0  0  0  0  0  0  0  0  0
    8.7519    1.4790   22.1529 C   0  0  0  0  0  0  0  0  0  0  0  0
   12.5834    6.3801   23.9569 C   0  0  0  0  0  0  0  0  0  0  0  0
   14.0119   -1.7790   24.9573 C   0  0  0  0  0  0  0  0  0  0  0  0
   14.4934    0.1352   23.3952 C   0  0  0  0  0  0  0  0  0  0  0  0
   14.6277   -2.2125   22.5878 C   0  0  0  0  0  0  0  0  0  0  0  0
    7.6574    0.4315   21.9641 C   0  0  2  0  0  0  0  0  0  0  0  0
   13.7945   -1.2556   23.5037 C   0  0  0  0  0  0  0  0  0  0  0  0
    7.4155    0.3098   18.1813 N   0  0  0  0  0  0  0  0  0  0  0  0
    8.4476    2.3720   23.1935 N   0  0  0  0  0  0  0  0  0  0  0  0
    8.2034   -0.8824   22.2390 N   0  0  0  0  0  0  0  0  0  0  0  0
    7.7739   -3.1958   22.5094 O   0  0  0  0  0  0  0  0  0  0  0  0
    9.7537    1.4998   21.4429 O   0  0  0  0  0  0  0  0  0  0  0  0
   11.5230    6.5963   24.9103 O   0  0  0  0  0  0  0  0  0  0  0  0
   12.3477    5.2552   23.0856 O   0  0  0  0  0  0  0  0  0  0  0  0
    4.1632    0.9569   18.8894 H   0  0  0  0  0  0  0  0  0  0  0  0
    5.0563    0.8909   21.2087 H   0  0  0  0  0  0  0  0  0  0  0  0
   11.9123    0.2468   24.7580 H   0  0  0  0  0  0  0  0  0  0  0  0
   12.4585   -2.5407   21.5195 H   0  0  0  0  0  0  0  0  0  0  0  0
    9.5140    0.4060   24.2185 H   0  0  0  0  0  0  0  0  0  0  0  0
   10.0608   -2.3811   20.9759 H   0  0  0  0  0  0  0  0  0  0  0  0
    7.7664    4.0005   25.1813 H   0  0  0  0  0  0  0  0  0  0  0  0
    9.0951    5.9248   26.0146 H   0  0  0  0  0  0  0  0  0  0  0  0
   10.8140    3.1506   22.2303 H   0  0  0  0  0  0  0  0  0  0  0  0
    5.7487    0.5731   16.9951 H   0  0  0  0  0  0  0  0  0  0  0  0
    8.9354    0.0826   19.5497 H   0  0  0  0  0  0  0  0  0  0  0  0
    4.1454   -2.5787   21.2446 H   0  0  0  0  0  0  0  0  0  0  0  0
    5.5912   -3.7385   21.1932 H   0  0  0  0  0  0  0  0  0  0  0  0
    5.5078   -0.8447   22.2518 H   0  0  0  0  0  0  0  0  0  0  0  0
   12.6926    7.2822   23.3432 H   0  0  0  0  0  0  0  0  0  0  0  0
   13.5183    6.2114   24.5034 H   0  0  0  0  0  0  0  0  0  0  0  0
   15.0720   -1.8597   25.2245 H   0  0  0  0  0  0  0  0  0  0  0  0
   13.5453   -1.1178   25.6959 H   0  0  0  0  0  0  0  0  0  0  0  0
   13.5618   -2.7720   25.0740 H   0  0  0  0  0  0  0  0  0  0  0  0
   15.5600    0.0681   23.6357 H   0  0  0  0  0  0  0  0  0  0  0  0
   14.4183    0.5700   22.3915 H   0  0  0  0  0  0  0  0  0  0  0  0
   14.0411    0.8429   24.1000 H   0  0  0  0  0  0  0  0  0  0  0  0
   15.6872   -2.2497   22.8685 H   0  0  0  0  0  0  0  0  0  0  0  0
   14.2439   -3.2379   22.6437 H   0  0  0  0  0  0  0  0  0  0  0  0
   14.5832   -1.8875   21.5417 H   0  0  0  0  0  0  0  0  0  0  0  0
    6.8713    0.6130   22.7073 H   0  0  0  0  0  0  0  0  0  0  0  0
    7.5571    2.2100   23.6771 H   0  0  0  0  0  0  0  0  0  0  0  0
  1  2  2  0  0  0  0
  1 10  1  0  0  0  0
  2 13  1  0  0  0  0
  3  5  2  0  0  0  0
  3 12  1  0  0  0  0
  4  6  1  0  0  0  0
  4 12  2  0  0  0  0
  5 14  1  0  0  0  0
  6 14  2  0  0  0  0
  7  8  2  0  0  0  0
  7 15  1  0  0  0  0
  8 16  1  0  0  0  0
  9 15  2  0  0  0  0
  9 17  1  0  0  0  0
 10 28  2  0  0  0  0
 11 13  2  0  0  0  0
 11 28  1  0  0  0  0
 12 27  1  0  0  0  0
 13 26  1  0  0  0  0
 14 30  1  0  0  0  0
 15 29  1  0  0  0  0
 16 17  2  0  0  0  0
 16 33  1  0  0  0  0
 17 34  1  0  0  0  0
 18 19  2  0  0  0  0
 19 20  1  0  0  0  0
 20 30  1  0  0  0  0
 20 31  2  0  0  0  0
 21 26  1  0  0  0  0
 21 29  1  0  0  0  0
 21 32  2  0  0  0  0
 22 33  1  0  0  0  0
 22 34  1  0  0  0  0
 23 27  1  0  0  0  0
 24 27  1  0  0  0  0
 25 27  1  0  0  0  0
 26 30  1  0  0  0  0
  1 35  1  0  0  0  0
  2 36  1  0  0  0  0
  3 37  1  0  0  0  0
  4 38  1  0  0  0  0
  5 39  1  0  0  0  0
  6 40  1  0  0  0  0
  7 41  1  0  0  0  0
  8 42  1  0  0  0  0
  9 43  1  0  0  0  0
 10 44  1  0  0  0  0
 11 45  1  0  0  0  0
 18 46  1  0  0  0  0
 18 47  1  0  0  0  0
 19 48  1  0  0  0  0
 22 49  1  0  0  0  0
 22 50  1  0  0  0  0
 23 51  1  0  0  0  0
 23 52  1  0  0  0  0
 23 53  1  0  0  0  0
 24 54  1  0  0  0  0
 24 55  1  0  0  0  0
 24 56  1  0  0  0  0
 25 57  1  0  0  0  0
 25 58  1  0  0  0  0
 25 59  1  0  0  0  0
 26 60  1  0  0  0  0
 29 61  1  0  0  0  0
M  END
> <series>
3-aminopyridine-like

> <r_inhibition_at_20_uM>

> <r_inhibition_at_50_uM>
100.0

> <r_IC50>

> <f_inhibition_at_20_uM>
41.057629999999996

> <f_inhibition_at_50_uM>
60.383215

> <f_avg_IC50>
36.06806763615854

> <f_avg_pIC50>
4.442877124591358

> <ASSAYED>
True

> <Hybrid2>
-7.494522

> <docked_fragment>
x0678

> <Mpro-_dock>
-5.595257

> <site>
active-noncovalent

$$$$
LON-WEI-adc59df6-4
  -OEChem-07042000473D

 64 67  0     1  0  0  0  0  0999 V2000
    5.3755    0.5175   18.7442 C   0  0  0  0  0  0  0  0  0  0  0  0
    5.8588    0.4439   20.0458 C   0  0  0  0  0  0  0  0  0  0  0  0
   11.6356   -0.4121   23.6839 C   0  0  0  0  0  0  0  0  0  0  0  0
   12.0843   -1.8508   21.7956 C   0  0  0  0  0  0  0  0  0  0  0  0
   10.2813   -0.3969   23.3506 C   0  0  0  0  0  0  0  0  0  0  0  0
   10.7299   -1.8356   21.4622 C   0  0  0  0  0  0  0  0  0  0  0  0
    8.5346    3.9056   24.6351 C   0  0  0  0  0  0  0  0  0  0  0  0
    9.2040    5.0047   25.1738 C   0  0  0  0  0  0  0  0  0  0  0  0
   10.2904    3.6307   22.9957 C   0  0  0  0  0  0  0  0  0  0  0  0
    6.2889    0.4208   17.7068 C   0  0  0  0  0  0  0  0  0  0  0  0
    8.0522    0.1919   19.1617 C   0  0  0  0  0  0  0  0  0  0  0  0
   12.5372   -1.1391   22.9064 C   0  0  0  0  0  0  0  0  0  0  0  0
    7.2214    0.2782   20.2673 C   0  0  0  0  0  0  0  0  0  0  0  0
    9.8284   -1.1086   22.2397 C   0  0  0  0  0  0  0  0  0  0  0  0
    9.0795    3.2165   23.5511 C   0  0  0  0  0  0  0  0  0  0  0  0
   10.4216    5.4115   24.6274 C   0  0  0  0  0  0  0  0  0  0  0  0
   10.9538    4.7381   23.5251 C   0  0  0  0  0  0  0  0  0  0  0  0
    5.5501   -3.1288   20.9383 C   0  0  0  0  0  0  0  0  0  0  0  0
    6.2186   -2.1596   21.5714 C   0  0  0  0  0  0  0  0  0  0  0  0
    7.6760   -2.3113   21.8545 C   0  0  0  0  0  0  0  0  0  0  0  0
    8.7942    1.3012   21.9399 C   0  0  0  0  0  0  0  0  0  0  0  0
   12.4098    6.5945   24.8110 C   0  0  0  0  0  0  0  0  0  0  0  0
   12.5316    6.4261   23.3090 C   0  0  0  0  0  0  0  0  0  0  0  0
   14.2095   -1.7401   24.6919 C   0  0  0  0  0  0  0  0  0  0  0  0
   14.5890    0.2833   23.2434 C   0  0  0  0  0  0  0  0  0  0  0  0
   14.8999   -2.0032   22.3179 C   0  0  0  0  0  0  0  0  0  0  0  0
    7.7782    0.1938   21.6713 C   0  0  2  0  0  0  0  0  0  0  0  0
   13.9852   -1.1553   23.2629 C   0  0  0  0  0  0  0  0  0  0  0  0
    7.6195    0.2593   17.8827 N   0  0  0  0  0  0  0  0  0  0  0  0
    8.4092    2.1147   23.0185 N   0  0  0  0  0  0  0  0  0  0  0  0
    8.4076   -1.0931   21.8899 N   0  0  0  0  0  0  0  0  0  0  0  0
    8.1328   -3.4414   22.0290 O   0  0  0  0  0  0  0  0  0  0  0  0
    9.8061    1.4277   21.2554 O   0  0  0  0  0  0  0  0  0  0  0  0
   11.0414    6.4848   25.2124 O   0  0  0  0  0  0  0  0  0  0  0  0
   12.1281    5.1092   22.9238 O   0  0  0  0  0  0  0  0  0  0  0  0
    4.3172    0.6463   18.5478 H   0  0  0  0  0  0  0  0  0  0  0  0
    5.1670    0.5165   20.8807 H   0  0  0  0  0  0  0  0  0  0  0  0
   11.9800    0.1471   24.5499 H   0  0  0  0  0  0  0  0  0  0  0  0
   12.7799   -2.4193   21.1838 H   0  0  0  0  0  0  0  0  0  0  0  0
    9.5876    0.1727   23.9638 H   0  0  0  0  0  0  0  0  0  0  0  0
   10.3880   -2.3929   20.5937 H   0  0  0  0  0  0  0  0  0  0  0  0
    7.5894    3.5920   25.0713 H   0  0  0  0  0  0  0  0  0  0  0  0
    8.7762    5.5310   26.0227 H   0  0  0  0  0  0  0  0  0  0  0  0
   10.7133    3.1005   22.1455 H   0  0  0  0  0  0  0  0  0  0  0  0
    5.9622    0.4728   16.6734 H   0  0  0  0  0  0  0  0  0  0  0  0
    9.1243    0.0621   19.2723 H   0  0  0  0  0  0  0  0  0  0  0  0
    4.4959   -3.0037   20.7141 H   0  0  0  0  0  0  0  0  0  0  0  0
    6.0187   -4.0588   20.6359 H   0  0  0  0  0  0  0  0  0  0  0  0
    5.7160   -1.2382   21.8419 H   0  0  0  0  0  0  0  0  0  0  0  0
   12.9947    5.8398   25.3511 H   0  0  0  0  0  0  0  0  0  0  0  0
   12.7669    7.5840   25.1128 H   0  0  0  0  0  0  0  0  0  0  0  0
   11.9134    7.1540   22.7691 H   0  0  0  0  0  0  0  0  0  0  0  0
   13.5712    6.5609   22.9946 H   0  0  0  0  0  0  0  0  0  0  0  0
   15.2672   -1.7632   24.9790 H   0  0  0  0  0  0  0  0  0  0  0  0
   13.6842   -1.1525   25.4529 H   0  0  0  0  0  0  0  0  0  0  0  0
   13.8265   -2.7660   24.7461 H   0  0  0  0  0  0  0  0  0  0  0  0
   15.6528    0.2756   23.5049 H   0  0  0  0  0  0  0  0  0  0  0  0
   14.5039    0.7653   22.2624 H   0  0  0  0  0  0  0  0  0  0  0  0
   14.0754    0.9200   23.9735 H   0  0  0  0  0  0  0  0  0  0  0  0
   15.9538   -1.9838   22.6209 H   0  0  0  0  0  0  0  0  0  0  0  0
   14.5865   -3.0537   22.3113 H   0  0  0  0  0  0  0  0  0  0  0  0
   14.8538   -1.6263   21.2895 H   0  0  0  0  0  0  0  0  0  0  0  0
    6.9671    0.2816   22.4045 H   0  0  0  0  0  0  0  0  0  0  0  0
    7.5225    1.8672   23.4723 H   0  0  0  0  0  0  0  0  0  0  0  0
  1  2  2  0  0  0  0
  1 10  1  0  0  0  0
  2 13  1  0  0  0  0
  3  5  2  0  0  0  0
  3 12  1  0  0  0  0
  4  6  1  0  0  0  0
  4 12  2  0  0  0  0
  5 14  1  0  0  0  0
  6 14  2  0  0  0  0
  7  8  2  0  0  0  0
  7 15  1  0  0  0  0
  8 16  1  0  0  0  0
  9 15  2  0  0  0  0
  9 17  1  0  0  0  0
 10 29  2  0  0  0  0
 11 13  2  0  0  0  0
 11 29  1  0  0  0  0
 12 28  1  0  0  0  0
 13 27  1  0  0  0  0
 14 31  1  0  0  0  0
 15 30  1  0  0  0  0
 16 17  2  0  0  0  0
 16 34  1  0  0  0  0
 17 35  1  0  0  0  0
 18 19  2  0  0  0  0
 19 20  1  0  0  0  0
 20 31  1  0  0  0  0
 20 32  2  0  0  0  0
 21 27  1  0  0  0  0
 21 30  1  0  0  0  0
 21 33  2  0  0  0  0
 22 23  1  0  0  0  0
 22 34  1  0  0  0  0
 23 35  1  0  0  0  0
 24 28  1  0  0  0  0
 25 28  1  0  0  0  0
 26 28  1  0  0  0  0
 27 31  1  0  0  0  0
  1 36  1  0  0  0  0
  2 37  1  0  0  0  0
  3 38  1  0  0  0  0
  4 39  1  0  0  0  0
  5 40  1  0  0  0  0
  6 41  1  0  0  0  0
  7 42  1  0  0  0  0
  8 43  1  0  0  0  0
  9 44  1  0  0  0  0
 10 45  1  0  0  0  0
 11 46  1  0  0  0  0
 18 47  1  0  0  0  0
 18 48  1  0  0  0  0
 19 49  1  0  0  0  0
 22 50  1  0  0  0  0
 22 51  1  0  0  0  0
 23 52  1  0  0  0  0
 23 53  1  0  0  0  0
 24 54  1  0  0  0  0
 24 55  1  0  0  0  0
 24 56  1  0  0  0  0
 25 57  1  0  0  0  0
 25 58  1  0  0  0  0
 25 59  1  0  0  0  0
 26 60  1  0  0  0  0
 26 61  1  0  0  0  0
 26 62  1  0  0  0  0
 27 63  1  0  0  0  0
 30 64  1  0  0  0  0
M  END
> <series>
3-aminopyridine-like

> <r_inhibition_at_20_uM>
7.675063767866262

> <r_inhibition_at_50_uM>
30.765444333455115

> <r_IC50>

> <f_inhibition_at_20_uM>
2.828568

> <f_inhibition_at_50_uM>
18.070079999999997

> <f_avg_IC50>

> <f_avg_pIC50>

> <ASSAYED>
True

> <Hybrid2>
-7.483911

> <docked_fragment>
x0678

> <Mpro-_dock>
-4.645708

> <site>
active-noncovalent

$$$$
LON-WEI-b8d98729-17
  -OEChem-07042000473D

 62 64  0     1  0  0  0  0  0999 V2000
    6.2881   -1.9915   26.7079 C   0  0  0  0  0  0  0  0  0  0  0  0
    5.9368    0.1331   19.8544 C   0  0  0  0  0  0  0  0  0  0  0  0
    5.8077   -3.2935   26.8481 C   0  0  0  0  0  0  0  0  0  0  0  0
    6.8010   -0.2304   20.8812 C   0  0  0  0  0  0  0  0  0  0  0  0
   13.6934   -0.2828   23.1524 C   0  0  0  0  0  0  0  0  0  0  0  0
   12.9777   -2.4832   22.4573 C   0  0  0  0  0  0  0  0  0  0  0  0
    6.9742   -1.6220   25.5510 C   0  0  0  0  0  0  0  0  0  0  0  0
   12.4783    0.2488   22.7207 C   0  0  0  0  0  0  0  0  0  0  0  0
   11.7625   -1.9516   22.0256 C   0  0  0  0  0  0  0  0  0  0  0  0
    6.6997   -3.8566   24.6745 C   0  0  0  0  0  0  0  0  0  0  0  0
    6.4414    0.1697   18.5645 C   0  0  0  0  0  0  0  0  0  0  0  0
    8.5312   -0.4754   19.2679 C   0  0  0  0  0  0  0  0  0  0  0  0
   13.9432   -1.6488   23.0206 C   0  0  0  0  0  0  0  0  0  0  0  0
    6.0136   -4.2261   25.8314 C   0  0  0  0  0  0  0  0  0  0  0  0
    8.1246   -0.5419   20.5908 C   0  0  0  0  0  0  0  0  0  0  0  0
   11.5128   -0.5855   22.1573 C   0  0  0  0  0  0  0  0  0  0  0  0
    7.1800   -2.5545   24.5343 C   0  0  0  0  0  0  0  0  0  0  0  0
    8.4085    2.8647   20.5176 C   0  0  0  0  0  0  0  0  0  0  0  0
    8.8139    1.9356   21.3890 C   0  0  0  0  0  0  0  0  0  0  0  0
   10.1516    1.2920   21.2354 C   0  0  0  0  0  0  0  0  0  0  0  0
    8.4179   -0.9330   23.0564 C   0  0  0  0  0  0  0  0  0  0  0  0
    6.5184   -6.5451   26.6401 C   0  0  0  0  0  0  0  0  0  0  0  0
   16.0092   -2.9368   22.3715 C   0  0  0  0  0  0  0  0  0  0  0  0
   14.7878   -2.4940   25.7712 C   0  0  0  0  0  0  0  0  0  0  0  0
    5.4999   -5.6179   25.9818 C   0  0  0  0  0  0  0  0  0  0  0  0
    9.0893   -0.9416   21.6853 C   0  0  2  0  0  0  0  0  0  0  0  0
   15.2425   -2.2171   23.4822 C   0  0  2  0  0  0  0  0  0  0  0  0
    7.7209   -0.1263   18.2436 N   0  0  0  0  0  0  0  0  0  0  0  0
    7.8755   -2.1791   23.3605 N   0  0  0  0  0  0  0  0  0  0  0  0
   10.2471   -0.0322   21.7079 N   0  0  0  0  0  0  0  0  0  0  0  0
   11.0684    1.9405   20.7304 O   0  0  0  0  0  0  0  0  0  0  0  0
    8.3830    0.0793   23.7508 O   0  0  0  0  0  0  0  0  0  0  0  0
   14.9949   -3.1558   24.5352 O   0  0  0  0  0  0  0  0  0  0  0  0
    6.1274   -1.2652   27.4994 H   0  0  0  0  0  0  0  0  0  0  0  0
    4.9010    0.3799   20.0573 H   0  0  0  0  0  0  0  0  0  0  0  0
    5.2751   -3.5721   27.7532 H   0  0  0  0  0  0  0  0  0  0  0  0
    6.4347   -0.2684   21.9035 H   0  0  0  0  0  0  0  0  0  0  0  0
   14.4408    0.3751   23.5881 H   0  0  0  0  0  0  0  0  0  0  0  0
   13.1643   -3.5485   22.3501 H   0  0  0  0  0  0  0  0  0  0  0  0
    7.3442   -0.6046   25.4526 H   0  0  0  0  0  0  0  0  0  0  0  0
   12.2942    1.3148   22.8286 H   0  0  0  0  0  0  0  0  0  0  0  0
   11.0176   -2.6107   21.5870 H   0  0  0  0  0  0  0  0  0  0  0  0
    6.8597   -4.5858   23.8833 H   0  0  0  0  0  0  0  0  0  0  0  0
    5.8077    0.4475   17.7286 H   0  0  0  0  0  0  0  0  0  0  0  0
    9.5521   -0.7074   18.9806 H   0  0  0  0  0  0  0  0  0  0  0  0
    7.4449    3.3463   20.6469 H   0  0  0  0  0  0  0  0  0  0  0  0
    9.0064    3.1639   19.6638 H   0  0  0  0  0  0  0  0  0  0  0  0
    8.1923    1.6772   22.2385 H   0  0  0  0  0  0  0  0  0  0  0  0
    7.4557   -6.5642   26.0738 H   0  0  0  0  0  0  0  0  0  0  0  0
    6.1335   -7.5683   26.6934 H   0  0  0  0  0  0  0  0  0  0  0  0
    6.7482   -6.2156   27.6591 H   0  0  0  0  0  0  0  0  0  0  0  0
   15.3974   -3.7208   21.9141 H   0  0  0  0  0  0  0  0  0  0  0  0
   16.9287   -3.3945   22.7535 H   0  0  0  0  0  0  0  0  0  0  0  0
   16.3159   -2.2329   21.5899 H   0  0  0  0  0  0  0  0  0  0  0  0
   14.6018   -3.2330   26.5543 H   0  0  0  0  0  0  0  0  0  0  0  0
   13.9345   -1.8167   25.6843 H   0  0  0  0  0  0  0  0  0  0  0  0
   15.6828   -1.9192   26.0209 H   0  0  0  0  0  0  0  0  0  0  0  0
    4.5720   -5.6229   26.5762 H   0  0  0  0  0  0  0  0  0  0  0  0
    5.2185   -6.0318   24.9999 H   0  0  0  0  0  0  0  0  0  0  0  0
    9.4782   -1.9496   21.4956 H   0  0  0  0  0  0  0  0  0  0  0  0
   15.9049   -1.4422   23.9043 H   0  0  0  0  0  0  0  0  0  0  0  0
    7.9931   -2.9045   22.6563 H   0  0  0  0  0  0  0  0  0  0  0  0
  1  3  1  0  0  0  0
  1  7  2  0  0  0  0
  2  4  2  0  0  0  0
  2 11  1  0  0  0  0
  3 14  2  0  0  0  0
  4 15  1  0  0  0  0
  5  8  2  0  0  0  0
  5 13  1  0  0  0  0
  6  9  1  0  0  0  0
  6 13  2  0  0  0  0
  7 17  1  0  0  0  0
  8 16  1  0  0  0  0
  9 16  2  0  0  0  0
 10 14  1  0  0  0  0
 10 17  2  0  0  0  0
 11 28  2  0  0  0  0
 12 15  2  0  0  0  0
 12 28  1  0  0  0  0
 13 27  1  0  0  0  0
 14 25  1  0  0  0  0
 15 26  1  0  0  0  0
 16 30  1  0  0  0  0
 17 29  1  0  0  0  0
 18 19  2  0  0  0  0
 19 20  1  0  0  0  0
 20 30  1  0  0  0  0
 20 31  2  0  0  0  0
 21 26  1  0  0  0  0
 21 29  1  0  0  0  0
 21 32  2  0  0  0  0
 22 25  1  0  0  0  0
 23 27  1  0  0  0  0
 24 33  1  0  0  0  0
 26 30  1  0  0  0  0
 27 33  1  0  0  0  0
  1 34  1  0  0  0  0
  2 35  1  0  0  0  0
  3 36  1  0  0  0  0
  4 37  1  0  0  0  0
  5 38  1  0  0  0  0
  6 39  1  0  0  0  0
  7 40  1  0  0  0  0
  8 41  1  0  0  0  0
  9 42  1  0  0  0  0
 10 43  1  0  0  0  0
 11 44  1  0  0  0  0
 12 45  1  0  0  0  0
 18 46  1  0  0  0  0
 18 47  1  0  0  0  0
 19 48  1  0  0  0  0
 22 49  1  0  0  0  0
 22 50  1  0  0  0  0
 22 51  1  0  0  0  0
 23 52  1  0  0  0  0
 23 53  1  0  0  0  0
 23 54  1  0  0  0  0
 24 55  1  0  0  0  0
 24 56  1  0  0  0  0
 24 57  1  0  0  0  0
 25 58  1  0  0  0  0
 25 59  1  0  0  0  0
 26 60  1  0  0  0  0
 27 61  1  0  0  0  0
 29 62  1  0  0  0  0
M  END
> <series>
3-aminopyridine-like

> <r_inhibition_at_20_uM>
4.444303831

> <r_inhibition_at_50_uM>

> <r_IC50>
99.0

> <f_inhibition_at_20_uM>
36.569340000000004

> <f_inhibition_at_50_uM>
63.733785

> <f_avg_IC50>
66.38703474922445

> <f_avg_pIC50>
4.177916729166141

> <ASSAYED>
True

> <Hybrid2>
-7.313599

> <docked_fragment>
x0678

> <Mpro-_dock>
-5.660915

> <site>
active-noncovalent

$$$$
BAR-COM-4e090d3a-35
  -OEChem-07042000473D

 41 43  0     0  0  0  0  0  0999 V2000
    8.5967   -2.3282   25.2608 C   0  0  0  0  0  0  0  0  0  0  0  0
    5.5378    2.5260   17.4835 C   0  0  0  0  0  0  0  0  0  0  0  0
    5.3181    2.0815   18.7825 C   0  0  0  0  0  0  0  0  0  0  0  0
    7.6484   -1.9803   24.2989 C   0  0  0  0  0  0  0  0  0  0  0  0
    9.7869   -1.6074   25.3594 C   0  0  0  0  0  0  0  0  0  0  0  0
    9.0804   -0.1910   23.5341 C   0  0  0  0  0  0  0  0  0  0  0  0
    6.4446    1.8268   16.7034 C   0  0  0  0  0  0  0  0  0  0  0  0
   14.3736   -2.4284   23.1495 C   0  0  0  0  0  0  0  0  0  0  0  0
   14.6804   -0.9215   24.5609 C   0  0  0  0  0  0  0  0  0  0  0  0
    6.0024    0.9671   19.2551 C   0  0  0  0  0  0  0  0  0  0  0  0
    7.8902   -0.9118   23.4356 C   0  0  0  0  0  0  0  0  0  0  0  0
   10.0287   -0.5389   24.4961 C   0  0  0  0  0  0  0  0  0  0  0  0
    6.8882    0.3375   18.3956 C   0  0  0  0  0  0  0  0  0  0  0  0
    7.0043    0.4701   21.5249 C   0  0  0  0  0  0  0  0  0  0  0  0
    5.7506    0.5007   20.6650 C   0  0  0  0  0  0  0  0  0  0  0  0
   13.2153    0.8327   23.4648 C   0  0  0  0  0  0  0  0  0  0  0  0
   11.6965    0.7485   23.3929 C   0  0  0  0  0  0  0  0  0  0  0  0
    7.1279    0.7401   17.1275 N   0  0  0  0  0  0  0  0  0  0  0  0
   15.0362   -2.1606   24.3130 N   0  0  0  0  0  0  0  0  0  0  0  0
   13.6302   -1.4329   22.6618 N   0  0  0  0  0  0  0  0  0  0  0  0
   13.8438   -0.4812   23.5831 N   0  0  0  0  0  0  0  0  0  0  0  0
    6.9411   -0.5640   22.4737 N   0  0  0  0  0  0  0  0  0  0  0  0
    7.9236    1.2681   21.3723 O   0  0  0  0  0  0  0  0  0  0  0  0
   11.1902    0.1644   24.5921 O   0  0  0  0  0  0  0  0  0  0  0  0
    7.8605   -1.1958   18.9756 Br  0  0  0  0  0  0  0  0  0  0  0  0
    8.4077   -3.1596   25.9334 H   0  0  0  0  0  0  0  0  0  0  0  0
    5.0161    3.3927   17.0941 H   0  0  0  0  0  0  0  0  0  0  0  0
    4.6126    2.6104   19.4176 H   0  0  0  0  0  0  0  0  0  0  0  0
    6.7247   -2.5494   24.2309 H   0  0  0  0  0  0  0  0  0  0  0  0
   10.5211   -1.8832   26.1113 H   0  0  0  0  0  0  0  0  0  0  0  0
    9.2733    0.6433   22.8635 H   0  0  0  0  0  0  0  0  0  0  0  0
    6.6519    2.1333   15.6834 H   0  0  0  0  0  0  0  0  0  0  0  0
   14.4327   -3.3793   22.6416 H   0  0  0  0  0  0  0  0  0  0  0  0
   14.9856   -0.3187   25.4046 H   0  0  0  0  0  0  0  0  0  0  0  0
    5.0121    1.1565   21.1435 H   0  0  0  0  0  0  0  0  0  0  0  0
    5.3110   -0.5046   20.6460 H   0  0  0  0  0  0  0  0  0  0  0  0
   13.5379    1.4319   24.3242 H   0  0  0  0  0  0  0  0  0  0  0  0
   13.6167    1.3010   22.5587 H   0  0  0  0  0  0  0  0  0  0  0  0
   11.2736    1.7542   23.3053 H   0  0  0  0  0  0  0  0  0  0  0  0
   11.3615    0.1484   22.5407 H   0  0  0  0  0  0  0  0  0  0  0  0
    6.0890   -1.1362   22.4572 H   0  0  0  0  0  0  0  0  0  0  0  0
  1  4  2  0  0  0  0
  1  5  1  0  0  0  0
  2  3  2  0  0  0  0
  2  7  1  0  0  0  0
  3 10  1  0  0  0  0
  4 11  1  0  0  0  0
  5 12  2  0  0  0  0
  6 11  2  0  0  0  0
  6 12  1  0  0  0  0
  7 18  2  0  0  0  0
  8 19  1  0  0  0  0
  8 20  2  0  0  0  0
  9 19  2  0  0  0  0
  9 21  1  0  0  0  0
 10 13  2  0  0  0  0
 10 15  1  0  0  0  0
 11 22  1  0  0  0  0
 12 24  1  0  0  0  0
 13 18  1  0  0  0  0
 13 25  1  0  0  0  0
 14 15  1  0  0  0  0
 14 22  1  0  0  0  0
 14 23  2  0  0  0  0
 16 17  1  0  0  0  0
 16 21  1  0  0  0  0
 17 24  1  0  0  0  0
 20 21  1  0  0  0  0
  1 26  1  0  0  0  0
  2 27  1  0  0  0  0
  3 28  1  0  0  0  0
  4 29  1  0  0  0  0
  5 30  1  0  0  0  0
  6 31  1  0  0  0  0
  7 32  1  0  0  0  0
  8 33  1  0  0  0  0
  9 34  1  0  0  0  0
 15 35  1  0  0  0  0
 15 36  1  0  0  0  0
 16 37  1  0  0  0  0
 16 38  1  0  0  0  0
 17 39  1  0  0  0  0
 17 40  1  0  0  0  0
 22 41  1  0  0  0  0
M  END
> <series>
3-aminopyridine-like

> <r_inhibition_at_20_uM>
0.0

> <r_inhibition_at_50_uM>
0.0

> <r_IC50>

> <f_inhibition_at_20_uM>

> <f_inhibition_at_50_uM>
-21.715870000000002

> <f_avg_IC50>

> <f_avg_pIC50>

> <ASSAYED>
True

> <Hybrid2>
-7.292602

> <docked_fragment>
x0678

> <Mpro-_dock>
-5.923429

> <site>
active-noncovalent

$$$$
JAN-GHE-5a013bed-6
  -OEChem-07042000473D

 24 25  0     0  0  0  0  0  0999 V2000
   12.1643    1.6717   23.1225 C   0  0  0  0  0  0  0  0  0  0  0  0
   10.8559    1.1905   23.1667 C   0  0  0  0  0  0  0  0  0  0  0  0
   13.2179    0.8690   23.5600 C   0  0  0  0  0  0  0  0  0  0  0  0
   11.6544   -0.8962   24.0861 C   0  0  0  0  0  0  0  0  0  0  0  0
    8.5838   -0.2068   18.7829 C   0  0  0  0  0  0  0  0  0  0  0  0
   10.6009   -0.0934   23.6485 C   0  0  0  0  0  0  0  0  0  0  0  0
   12.9629   -0.4150   24.0418 C   0  0  0  0  0  0  0  0  0  0  0  0
    8.2178    0.0201   20.0946 C   0  0  0  0  0  0  0  0  0  0  0  0
    8.2934   -0.0334   22.6118 C   0  0  0  0  0  0  0  0  0  0  0  0
    9.2014   -0.6069   23.6966 C   0  0  0  0  0  0  0  0  0  0  0  0
    7.7364    0.3284   17.8256 N   0  0  0  0  0  0  0  0  0  0  0  0
    6.7186    0.9670   18.3806 N   0  0  0  0  0  0  0  0  0  0  0  0
    8.7807   -0.3368   21.3430 N   0  0  0  0  0  0  0  0  0  0  0  0
    7.2816    0.6039   22.8861 O   0  0  0  0  0  0  0  0  0  0  0  0
    6.7656    0.9334   20.0548 S   0  0  0  0  0  0  0  0  0  0  0  0
   14.2630   -1.4045   24.5825 Cl  0  0  0  0  0  0  0  0  0  0  0  0
   12.3624    2.6717   22.7474 H   0  0  0  0  0  0  0  0  0  0  0  0
   10.0411    1.8230   22.8239 H   0  0  0  0  0  0  0  0  0  0  0  0
   14.2326    1.2573   23.5200 H   0  0  0  0  0  0  0  0  0  0  0  0
   11.4505   -1.8968   24.4603 H   0  0  0  0  0  0  0  0  0  0  0  0
    9.4586   -0.7560   18.4619 H   0  0  0  0  0  0  0  0  0  0  0  0
    9.1929   -1.7053   23.6023 H   0  0  0  0  0  0  0  0  0  0  0  0
    8.7467   -0.3846   24.6760 H   0  0  0  0  0  0  0  0  0  0  0  0
    9.6421   -0.8782   21.3097 H   0  0  0  0  0  0  0  0  0  0  0  0
  1  2  2  0  0  0  0
  1  3  1  0  0  0  0
  2  6  1  0  0  0  0
  3  7  2  0  0  0  0
  4  6  2  0  0  0  0
  4  7  1  0  0  0  0
  5  8  2  0  0  0  0
  5 11  1  0  0  0  0
  6 10  1  0  0  0  0
  7 16  1  0  0  0  0
  8 13  1  0  0  0  0
  8 15  1  0  0  0  0
  9 10  1  0  0  0  0
  9 13  1  0  0  0  0
  9 14  2  0  0  0  0
 11 12  2  0  0  0  0
 12 15  1  0  0  0  0
  1 17  1  0  0  0  0
  2 18  1  0  0  0  0
  3 19  1  0  0  0  0
  4 20  1  0  0  0  0
  5 21  1  0  0  0  0
 10 22  1  0  0  0  0
 10 23  1  0  0  0  0
 13 24  1  0  0  0  0
M  END
> <series>
3-aminopyridine-like

> <r_inhibition_at_20_uM>

> <r_inhibition_at_50_uM>
48.663734816489075

> <r_IC50>

> <f_inhibition_at_20_uM>
4.120153500000001

> <f_inhibition_at_50_uM>
3.342711

> <f_avg_IC50>

> <f_avg_pIC50>

> <ASSAYED>
True

> <Hybrid2>
-7.224826

> <docked_fragment>
x0678

> <Mpro-_dock>
-6.208162

> <site>
active-noncovalent

$$$$
LON-WEI-b8d98729-26
  -OEChem-07042000473D

 61 63  0     1  0  0  0  0  0999 V2000
    6.7061    0.1079   20.2231 C   0  0  0  0  0  0  0  0  0  0  0  0
    7.6613   -0.3608   21.1183 C   0  0  0  0  0  0  0  0  0  0  0  0
    7.9410   -3.8535   24.5242 C   0  0  0  0  0  0  0  0  0  0  0  0
   10.6619    2.3317   21.6241 C   0  0  0  0  0  0  0  0  0  0  0  0
    7.2494   -4.7658   25.3210 C   0  0  0  0  0  0  0  0  0  0  0  0
   10.0126    3.5532   21.7643 C   0  0  0  0  0  0  0  0  0  0  0  0
    6.5815   -5.9852   23.3452 C   0  0  0  0  0  0  0  0  0  0  0  0
    7.0694    0.2288   18.8915 C   0  0  0  0  0  0  0  0  0  0  0  0
    9.1960   -0.5332   19.3097 C   0  0  0  0  0  0  0  0  0  0  0  0
    8.9946    1.3462   23.0046 C   0  0  0  0  0  0  0  0  0  0  0  0
    8.9325   -0.6896   20.6609 C   0  0  0  0  0  0  0  0  0  0  0  0
    7.2730   -5.0728   22.5483 C   0  0  0  0  0  0  0  0  0  0  0  0
   10.1496    1.2023   22.2529 C   0  0  0  0  0  0  0  0  0  0  0  0
    7.9527   -4.0069   23.1378 C   0  0  0  0  0  0  0  0  0  0  0  0
    6.5697   -5.8317   24.7316 C   0  0  0  0  0  0  0  0  0  0  0  0
    8.8637    3.5919   22.5377 C   0  0  0  0  0  0  0  0  0  0  0  0
   13.8993   -1.9669   22.8159 C   0  0  0  0  0  0  0  0  0  0  0  0
   12.6511   -1.6764   22.4356 C   0  0  0  0  0  0  0  0  0  0  0  0
   12.1331   -0.2818   22.5548 C   0  0  0  0  0  0  0  0  0  0  0  0
    9.3782   -1.9603   22.7834 C   0  0  0  0  0  0  0  0  0  0  0  0
    7.2681   -5.2622   21.0661 C   0  0  0  0  0  0  0  0  0  0  0  0
    8.1028    5.3470   24.1791 C   0  0  0  0  0  0  0  0  0  0  0  0
    6.7121    4.8428   22.1379 C   0  0  0  0  0  0  0  0  0  0  0  0
    5.9252   -6.5060   26.9192 C   0  0  0  0  0  0  0  0  0  0  0  0
    9.9934   -1.2028   21.6094 C   0  0  2  0  0  0  0  0  0  0  0  0
    8.1413    4.8862   22.7101 C   0  0  0  0  0  0  0  0  0  0  0  0
    8.2941   -0.0808   18.4100 N   0  0  0  0  0  0  0  0  0  0  0  0
    8.3361    2.5161   23.1638 N   0  0  0  0  0  0  0  0  0  0  0  0
    8.6584   -3.0696   22.3466 N   0  0  0  0  0  0  0  0  0  0  0  0
   10.8050   -0.0878   22.1252 N   0  0  0  0  0  0  0  0  0  0  0  0
   12.8780    0.5928   22.9976 O   0  0  0  0  0  0  0  0  0  0  0  0
    9.5252   -1.5825   23.9426 O   0  0  0  0  0  0  0  0  0  0  0  0
    5.8953   -6.7223   25.5093 O   0  0  0  0  0  0  0  0  0  0  0  0
    5.7087    0.3701   20.5571 H   0  0  0  0  0  0  0  0  0  0  0  0
    7.4064   -0.4667   22.1693 H   0  0  0  0  0  0  0  0  0  0  0  0
    8.4662   -3.0260   24.9949 H   0  0  0  0  0  0  0  0  0  0  0  0
   11.5650    2.2710   21.0226 H   0  0  0  0  0  0  0  0  0  0  0  0
    7.2444   -4.6411   26.4004 H   0  0  0  0  0  0  0  0  0  0  0  0
   10.4023    4.4418   21.2791 H   0  0  0  0  0  0  0  0  0  0  0  0
    6.0502   -6.8169   22.8886 H   0  0  0  0  0  0  0  0  0  0  0  0
    6.3605    0.5902   18.1537 H   0  0  0  0  0  0  0  0  0  0  0  0
   10.1700   -0.7737   18.8948 H   0  0  0  0  0  0  0  0  0  0  0  0
    8.5475    0.5010   23.5193 H   0  0  0  0  0  0  0  0  0  0  0  0
   14.2788   -2.9773   22.7056 H   0  0  0  0  0  0  0  0  0  0  0  0
   14.5654   -1.2267   23.2452 H   0  0  0  0  0  0  0  0  0  0  0  0
   12.0232   -2.4426   21.9958 H   0  0  0  0  0  0  0  0  0  0  0  0
    6.4204   -4.7308   20.6189 H   0  0  0  0  0  0  0  0  0  0  0  0
    8.1945   -4.8854   20.6161 H   0  0  0  0  0  0  0  0  0  0  0  0
    7.1939   -6.3245   20.8033 H   0  0  0  0  0  0  0  0  0  0  0  0
    7.5965    4.6154   24.8183 H   0  0  0  0  0  0  0  0  0  0  0  0
    7.5762    6.3017   24.2854 H   0  0  0  0  0  0  0  0  0  0  0  0
    9.1196    5.4802   24.5651 H   0  0  0  0  0  0  0  0  0  0  0  0
    6.1217    4.0690   22.6412 H   0  0  0  0  0  0  0  0  0  0  0  0
    6.7169    4.6165   21.0661 H   0  0  0  0  0  0  0  0  0  0  0  0
    6.1943    5.7987   22.2730 H   0  0  0  0  0  0  0  0  0  0  0  0
    5.3489   -7.2872   27.4207 H   0  0  0  0  0  0  0  0  0  0  0  0
    5.5033   -5.5239   27.1471 H   0  0  0  0  0  0  0  0  0  0  0  0
    6.9617   -6.5437   27.2627 H   0  0  0  0  0  0  0  0  0  0  0  0
   10.6772   -1.8780   21.0806 H   0  0  0  0  0  0  0  0  0  0  0  0
    8.6672    5.6853   22.1542 H   0  0  0  0  0  0  0  0  0  0  0  0
    8.6374   -3.2243   21.3408 H   0  0  0  0  0  0  0  0  0  0  0  0
  1  2  2  0  0  0  0
  1  8  1  0  0  0  0
  2 11  1  0  0  0  0
  3  5  2  0  0  0  0
  3 14  1  0  0  0  0
  4  6  2  0  0  0  0
  4 13  1  0  0  0  0
  5 15  1  0  0  0  0
  6 16  1  0  0  0  0
  7 12  1  0  0  0  0
  7 15  2  0  0  0  0
  8 27  2  0  0  0  0
  9 11  2  0  0  0  0
  9 27  1  0  0  0  0
 10 13  2  0  0  0  0
 10 28  1  0  0  0  0
 11 25  1  0  0  0  0
 12 14  2  0  0  0  0
 12 21  1  0  0  0  0
 13 30  1  0  0  0  0
 14 29  1  0  0  0  0
 15 33  1  0  0  0  0
 16 26  1  0  0  0  0
 16 28  2  0  0  0  0
 17 18  2  0  0  0  0
 18 19  1  0  0  0  0
 19 30  1  0  0  0  0
 19 31  2  0  0  0  0
 20 25  1  0  0  0  0
 20 29  1  0  0  0  0
 20 32  2  0  0  0  0
 22 26  1  0  0  0  0
 23 26  1  0  0  0  0
 24 33  1  0  0  0  0
 25 30  1  0  0  0  0
  1 34  1  0  0  0  0
  2 35  1  0  0  0  0
  3 36  1  0  0  0  0
  4 37  1  0  0  0  0
  5 38  1  0  0  0  0
  6 39  1  0  0  0  0
  7 40  1  0  0  0  0
  8 41  1  0  0  0  0
  9 42  1  0  0  0  0
 10 43  1  0  0  0  0
 17 44  1  0  0  0  0
 17 45  1  0  0  0  0
 18 46  1  0  0  0  0
 21 47  1  0  0  0  0
 21 48  1  0  0  0  0
 21 49  1  0  0  0  0
 22 50  1  0  0  0  0
 22 51  1  0  0  0  0
 22 52  1  0  0  0  0
 23 53  1  0  0  0  0
 23 54  1  0  0  0  0
 23 55  1  0  0  0  0
 24 56  1  0  0  0  0
 24 57  1  0  0  0  0
 24 58  1  0  0  0  0
 25 59  1  0  0  0  0
 26 60  1  0  0  0  0
 29 61  1  0  0  0  0
M  END
> <series>
3-aminopyridine-like

> <r_inhibition_at_20_uM>
0.0

> <r_inhibition_at_50_uM>

> <r_IC50>

> <f_inhibition_at_20_uM>
6.5587765000000005

> <f_inhibition_at_50_uM>
10.390333

> <f_avg_IC50>

> <f_avg_pIC50>

> <ASSAYED>
True

> <Hybrid2>
-7.221618

> <docked_fragment>
x0678

> <Mpro-_dock>
-5.551109

> <site>
active-noncovalent

$$$$
LON-WEI-b8d98729-4
  -OEChem-07042000473D

 44 45  0     0  0  0  0  0  0999 V2000
    4.6951    1.6937   21.0749 C   0  0  0  0  0  0  0  0  0  0  0  0
    5.8309    1.8116   21.8760 C   0  0  0  0  0  0  0  0  0  0  0  0
    4.8177    1.2854   19.7468 C   0  0  0  0  0  0  0  0  0  0  0  0
    7.2119    1.1132   20.0207 C   0  0  0  0  0  0  0  0  0  0  0  0
    7.0893    1.5214   21.3489 C   0  0  0  0  0  0  0  0  0  0  0  0
    6.0761    0.9952   19.2196 C   0  0  0  0  0  0  0  0  0  0  0  0
   14.3818   -1.8790   23.6214 C   0  0  0  0  0  0  0  0  0  0  0  0
    9.5340    1.9627   21.7583 C   0  0  0  0  0  0  0  0  0  0  0  0
   12.4334   -0.7923   24.6909 C   0  0  0  0  0  0  0  0  0  0  0  0
   12.2931   -1.3116   22.2860 C   0  0  0  0  0  0  0  0  0  0  0  0
   11.9443    0.6256   24.4343 C   0  0  0  0  0  0  0  0  0  0  0  0
   11.7998    0.0989   21.9931 C   0  0  0  0  0  0  0  0  0  0  0  0
   14.9995   -2.4191   22.3564 C   0  0  0  0  0  0  0  0  0  0  0  0
   10.4682    1.9836   22.9470 C   0  0  0  0  0  0  0  0  0  0  0  0
   13.1009   -1.3400   23.5100 N   0  0  0  0  0  0  0  0  0  0  0  0
    6.0876   -1.2096   17.7218 N   0  0  0  0  0  0  0  0  0  0  0  0
    8.2417    1.6407   22.1616 N   0  0  0  0  0  0  0  0  0  0  0  0
   11.0646    0.6284   23.2041 N   0  3  0  0  0  0  0  0  0  0  0  0
   15.0211   -1.9330   24.6752 O   0  0  0  0  0  0  0  0  0  0  0  0
    9.9230    2.2088   20.6214 O   0  0  0  0  0  0  0  0  0  0  0  0
    5.0784    0.9827   16.8160 O   0  0  0  0  0  0  0  0  0  0  0  0
    7.5752    0.7993   17.0986 O   0  0  0  0  0  0  0  0  0  0  0  0
    6.2290    0.4852   17.5570 S   0  0  0  0  0  0  0  0  0  0  0  0
    3.7151    1.9191   21.4852 H   0  0  0  0  0  0  0  0  0  0  0  0
    5.7230    2.1300   22.9098 H   0  0  0  0  0  0  0  0  0  0  0  0
    3.9265    1.1972   19.1313 H   0  0  0  0  0  0  0  0  0  0  0  0
    8.1929    0.8865   19.6089 H   0  0  0  0  0  0  0  0  0  0  0  0
   13.1063   -0.7962   25.5541 H   0  0  0  0  0  0  0  0  0  0  0  0
   11.5933   -1.4552   24.9314 H   0  0  0  0  0  0  0  0  0  0  0  0
   11.4467   -1.9921   22.4392 H   0  0  0  0  0  0  0  0  0  0  0  0
   12.8485   -1.6823   21.4228 H   0  0  0  0  0  0  0  0  0  0  0  0
   11.3356    0.9821   25.2716 H   0  0  0  0  0  0  0  0  0  0  0  0
   12.7729    1.3206   24.2575 H   0  0  0  0  0  0  0  0  0  0  0  0
   12.6254    0.7851   21.7738 H   0  0  0  0  0  0  0  0  0  0  0  0
   11.0918    0.0944   21.1581 H   0  0  0  0  0  0  0  0  0  0  0  0
   15.5497   -1.6248   21.8628 H   0  0  0  0  0  0  0  0  0  0  0  0
   14.2126   -2.7855   21.7048 H   0  0  0  0  0  0  0  0  0  0  0  0
   15.6706   -3.2339   22.6087 H   0  0  0  0  0  0  0  0  0  0  0  0
    9.9294    2.2713   23.8543 H   0  0  0  0  0  0  0  0  0  0  0  0
   11.3000    2.6696   22.7638 H   0  0  0  0  0  0  0  0  0  0  0  0
    5.2249   -1.6561   17.3876 H   0  0  0  0  0  0  0  0  0  0  0  0
    6.9309   -1.7795   17.5823 H   0  0  0  0  0  0  0  0  0  0  0  0
    8.0940    1.4689   23.1540 H   0  0  0  0  0  0  0  0  0  0  0  0
   10.2766   -0.0082   23.3874 H   0  0  0  0  0  0  0  0  0  0  0  0
  1  2  2  0  0  0  0
  1  3  1  0  0  0  0
  2  5  1  0  0  0  0
  3  6  2  0  0  0  0
  4  5  2  0  0  0  0
  4  6  1  0  0  0  0
  5 17  1  0  0  0  0
  6 23  1  0  0  0  0
  7 13  1  0  0  0  0
  7 15  1  0  0  0  0
  7 19  2  0  0  0  0
  8 14  1  0  0  0  0
  8 17  1  0  0  0  0
  8 20  2  0  0  0  0
  9 11  1  0  0  0  0
  9 15  1  0  0  0  0
 10 12  1  0  0  0  0
 10 15  1  0  0  0  0
 11 18  1  0  0  0  0
 12 18  1  0  0  0  0
 14 18  1  0  0  0  0
 16 23  1  0  0  0  0
 21 23  2  0  0  0  0
 22 23  2  0  0  0  0
  1 24  1  0  0  0  0
  2 25  1  0  0  0  0
  3 26  1  0  0  0  0
  4 27  1  0  0  0  0
  9 28  1  0  0  0  0
  9 29  1  0  0  0  0
 10 30  1  0  0  0  0
 10 31  1  0  0  0  0
 11 32  1  0  0  0  0
 11 33  1  0  0  0  0
 12 34  1  0  0  0  0
 12 35  1  0  0  0  0
 13 36  1  0  0  0  0
 13 37  1  0  0  0  0
 13 38  1  0  0  0  0
 14 39  1  0  0  0  0
 14 40  1  0  0  0  0
 16 41  1  0  0  0  0
 16 42  1  0  0  0  0
 17 43  1  0  0  0  0
 18 44  1  0  0  0  0
M  CHG  1  18   1
M  END
> <series>
3-aminopyridine-like

> <r_inhibition_at_20_uM>
0.0

> <r_inhibition_at_50_uM>

> <r_IC50>

> <f_inhibition_at_20_uM>
-3.1208099999999996

> <f_inhibition_at_50_uM>
2.6341365000000003

> <f_avg_IC50>

> <f_avg_pIC50>

> <ASSAYED>
True

> <Hybrid2>
-7.198962

> <docked_fragment>
x0678

> <Mpro-_dock>
-4.089429

> <site>
active-noncovalent

$$$$
JAG-UCB-a3ef7265-18
  -OEChem-07042000473D

 34 35  0     0  0  0  0  0  0999 V2000
   14.1190   -2.2786   23.9463 C   0  0  0  0  0  0  0  0  0  0  0  0
   13.5520    0.0669   23.8289 C   0  0  0  0  0  0  0  0  0  0  0  0
   12.2750   -1.5492   22.5661 C   0  0  0  0  0  0  0  0  0  0  0  0
    6.9733    0.1466   18.8368 C   0  0  0  0  0  0  0  0  0  0  0  0
   14.3556   -0.9581   24.3280 C   0  0  0  0  0  0  0  0  0  0  0  0
   13.0787   -2.5742   23.0652 C   0  0  0  0  0  0  0  0  0  0  0  0
   12.5117   -0.2286   22.9479 C   0  0  0  0  0  0  0  0  0  0  0  0
    8.8248    0.3726   19.9458 C   0  0  0  0  0  0  0  0  0  0  0  0
   11.0919    0.5933   21.0212 C   0  0  0  0  0  0  0  0  0  0  0  0
   15.4679   -0.6427   25.2703 C   0  0  0  0  0  0  0  0  0  0  0  0
   12.8249   -3.9861   22.6570 C   0  0  0  0  0  0  0  0  0  0  0  0
    6.6995    0.6274   21.2774 C   0  0  0  0  0  0  0  0  0  0  0  0
   11.6526    0.8678   22.4143 C   0  0  0  0  0  0  0  0  0  0  0  0
    7.9636   -0.0169   17.9890 N   0  0  0  0  0  0  0  0  0  0  0  0
    9.1416    0.1269   18.6945 N   0  0  0  0  0  0  0  0  0  0  0  0
    7.4698    0.3939   20.0806 N   0  0  0  0  0  0  0  0  0  0  0  0
    9.6994    0.5910   21.0368 N   0  0  0  0  0  0  0  0  0  0  0  0
   11.8243    0.4057   20.0551 O   0  0  0  0  0  0  0  0  0  0  0  0
   14.7454   -3.0782   24.3348 H   0  0  0  0  0  0  0  0  0  0  0  0
   13.7366    1.0966   24.1266 H   0  0  0  0  0  0  0  0  0  0  0  0
   11.4640   -1.7793   21.8793 H   0  0  0  0  0  0  0  0  0  0  0  0
    5.9178    0.0979   18.6098 H   0  0  0  0  0  0  0  0  0  0  0  0
   16.3940   -0.4470   24.7162 H   0  0  0  0  0  0  0  0  0  0  0  0
   15.2348    0.2392   25.8810 H   0  0  0  0  0  0  0  0  0  0  0  0
   15.6476   -1.4725   25.9664 H   0  0  0  0  0  0  0  0  0  0  0  0
   12.1187   -4.4623   23.3480 H   0  0  0  0  0  0  0  0  0  0  0  0
   12.4084   -4.0387   21.6427 H   0  0  0  0  0  0  0  0  0  0  0  0
   13.7535   -4.5716   22.6498 H   0  0  0  0  0  0  0  0  0  0  0  0
    6.5231   -0.3381   21.7587 H   0  0  0  0  0  0  0  0  0  0  0  0
    7.2560    1.2913   21.9449 H   0  0  0  0  0  0  0  0  0  0  0  0
    5.7511    1.1015   21.0100 H   0  0  0  0  0  0  0  0  0  0  0  0
   10.8036    1.0537   23.0926 H   0  0  0  0  0  0  0  0  0  0  0  0
   12.2198    1.8122   22.3748 H   0  0  0  0  0  0  0  0  0  0  0  0
    9.2594    0.7669   21.9377 H   0  0  0  0  0  0  0  0  0  0  0  0
  1  5  2  0  0  0  0
  1  6  1  0  0  0  0
  2  5  1  0  0  0  0
  2  7  2  0  0  0  0
  3  6  2  0  0  0  0
  3  7  1  0  0  0  0
  4 14  2  0  0  0  0
  4 16  1  0  0  0  0
  5 10  1  0  0  0  0
  6 11  1  0  0  0  0
  7 13  1  0  0  0  0
  8 15  2  0  0  0  0
  8 16  1  0  0  0  0
  8 17  1  0  0  0  0
  9 13  1  0  0  0  0
  9 17  1  0  0  0  0
  9 18  2  0  0  0  0
 12 16  1  0  0  0  0
 14 15  1  0  0  0  0
  1 19  1  0  0  0  0
  2 20  1  0  0  0  0
  3 21  1  0  0  0  0
  4 22  1  0  0  0  0
 10 23  1  0  0  0  0
 10 24  1  0  0  0  0
 10 25  1  0  0  0  0
 11 26  1  0  0  0  0
 11 27  1  0  0  0  0
 11 28  1  0  0  0  0
 12 29  1  0  0  0  0
 12 30  1  0  0  0  0
 12 31  1  0  0  0  0
 13 32  1  0  0  0  0
 13 33  1  0  0  0  0
 17 34  1  0  0  0  0
M  END
> <series>
3-aminopyridine-like

> <r_inhibition_at_20_uM>

> <r_inhibition_at_50_uM>
0.0

> <r_IC50>

> <f_inhibition_at_20_uM>
-0.7908505

> <f_inhibition_at_50_uM>
-11.527954

> <f_avg_IC50>

> <f_avg_pIC50>

> <ASSAYED>
True

> <Hybrid2>
-7.051292

> <docked_fragment>
x0678

> <Mpro-_dock>
-5.847171

> <site>
active-noncovalent

$$$$
JAG-UCB-a3ef7265-8
  -OEChem-07042000473D

 36 37  0     0  0  0  0  0  0999 V2000
   12.1227    2.0946   23.4325 C   0  0  0  0  0  0  0  0  0  0  0  0
   10.8069    1.7243   23.7100 C   0  0  0  0  0  0  0  0  0  0  0  0
   13.1516    1.1614   23.5601 C   0  0  0  0  0  0  0  0  0  0  0  0
   10.5198    0.4209   24.1152 C   0  0  0  0  0  0  0  0  0  0  0  0
    8.2822    0.1553   20.7075 C   0  0  0  0  0  0  0  0  0  0  0  0
   12.8645   -0.1421   23.9653 C   0  0  0  0  0  0  0  0  0  0  0  0
   11.5487   -0.5124   24.2429 C   0  0  0  0  0  0  0  0  0  0  0  0
    8.9169   -0.0783   19.4728 C   0  0  0  0  0  0  0  0  0  0  0  0
    6.9990    0.5119   20.3719 C   0  0  0  0  0  0  0  0  0  0  0  0
    8.1566    0.2946   23.2194 C   0  0  0  0  0  0  0  0  0  0  0  0
   10.3121   -0.4909   19.2368 C   0  0  0  0  0  0  0  0  0  0  0  0
    5.8020    0.7695   18.1784 C   0  0  0  0  0  0  0  0  0  0  0  0
    5.7544    2.2396   21.4310 C   0  0  0  0  0  0  0  0  0  0  0  0
    9.0940    0.0728   24.4017 C   0  0  0  0  0  0  0  0  0  0  0  0
    8.1038    0.1136   18.4307 N   0  0  0  0  0  0  0  0  0  0  0  0
    6.9451    0.4715   19.0097 N   0  0  0  0  0  0  0  0  0  0  0  0
    8.8140    0.0556   22.0152 N   0  0  0  0  0  0  0  0  0  0  0  0
    6.9892    0.6391   23.3729 O   0  0  0  0  0  0  0  0  0  0  0  0
    5.9461    0.8470   21.1040 O   0  0  0  0  0  0  0  0  0  0  0  0
   14.1888   -1.2464   24.1027 Cl  0  0  0  0  0  0  0  0  0  0  0  0
   11.1664   -2.1275   24.7487 Cl  0  0  0  0  0  0  0  0  0  0  0  0
   12.3460    3.1096   23.1177 H   0  0  0  0  0  0  0  0  0  0  0  0
   10.0133    2.4599   23.6076 H   0  0  0  0  0  0  0  0  0  0  0  0
   14.1712    1.4679   23.3398 H   0  0  0  0  0  0  0  0  0  0  0  0
   10.4050   -1.5898   19.2131 H   0  0  0  0  0  0  0  0  0  0  0  0
   10.7046   -0.1025   18.2806 H   0  0  0  0  0  0  0  0  0  0  0  0
   10.9948   -0.1154   20.0193 H   0  0  0  0  0  0  0  0  0  0  0  0
    5.8252    1.8368   17.9431 H   0  0  0  0  0  0  0  0  0  0  0  0
    5.8533    0.1748   17.2621 H   0  0  0  0  0  0  0  0  0  0  0  0
    4.8860    0.5158   18.7191 H   0  0  0  0  0  0  0  0  0  0  0  0
    4.8502    2.3519   22.0342 H   0  0  0  0  0  0  0  0  0  0  0  0
    5.6658    2.8221   20.5105 H   0  0  0  0  0  0  0  0  0  0  0  0
    6.6165    2.5927   22.0018 H   0  0  0  0  0  0  0  0  0  0  0  0
    9.0155   -0.9816   24.7092 H   0  0  0  0  0  0  0  0  0  0  0  0
    8.7236    0.6666   25.2517 H   0  0  0  0  0  0  0  0  0  0  0  0
    9.7906   -0.2231   22.0836 H   0  0  0  0  0  0  0  0  0  0  0  0
  1  2  2  0  0  0  0
  1  3  1  0  0  0  0
  2  4  1  0  0  0  0
  3  6  2  0  0  0  0
  4  7  2  0  0  0  0
  4 14  1  0  0  0  0
  5  8  1  0  0  0  0
  5  9  2  0  0  0  0
  5 17  1  0  0  0  0
  6  7  1  0  0  0  0
  6 20  1  0  0  0  0
  7 21  1  0  0  0  0
  8 11  1  0  0  0  0
  8 15  2  0  0  0  0
  9 16  1  0  0  0  0
  9 19  1  0  0  0  0
 10 14  1  0  0  0  0
 10 17  1  0  0  0  0
 10 18  2  0  0  0  0
 12 16  1  0  0  0  0
 13 19  1  0  0  0  0
 15 16  1  0  0  0  0
  1 22  1  0  0  0  0
  2 23  1  0  0  0  0
  3 24  1  0  0  0  0
 11 25  1  0  0  0  0
 11 26  1  0  0  0  0
 11 27  1  0  0  0  0
 12 28  1  0  0  0  0
 12 29  1  0  0  0  0
 12 30  1  0  0  0  0
 13 31  1  0  0  0  0
 13 32  1  0  0  0  0
 13 33  1  0  0  0  0
 14 34  1  0  0  0  0
 14 35  1  0  0  0  0
 17 36  1  0  0  0  0
M  END
> <series>
3-aminopyridine-like

> <r_inhibition_at_20_uM>

> <r_inhibition_at_50_uM>
0.0

> <r_IC50>

> <f_inhibition_at_20_uM>
2.7770125

> <f_inhibition_at_50_uM>
2.1942745

> <f_avg_IC50>

> <f_avg_pIC50>

> <ASSAYED>
True

> <Hybrid2>
-6.827847

> <docked_fragment>
x0678

> <Mpro-_dock>
-6.711001

> <site>
active-noncovalent

$$$$
LON-WEI-adc59df6-8
  -OEChem-07042000473D

 64 66  0     1  0  0  0  0  0999 V2000
    5.8409   -0.1227   19.6045 C   0  0  0  0  0  0  0  0  0  0  0  0
    6.6411   -0.4098   20.7047 C   0  0  0  0  0  0  0  0  0  0  0  0
   12.8562   -2.0162   22.8931 C   0  0  0  0  0  0  0  0  0  0  0  0
   13.2334    0.2298   23.6995 C   0  0  0  0  0  0  0  0  0  0  0  0
   11.6405   -1.6136   22.3404 C   0  0  0  0  0  0  0  0  0  0  0  0
   12.0177    0.6324   23.1467 C   0  0  0  0  0  0  0  0  0  0  0  0
    6.4585    0.0167   18.3720 C   0  0  0  0  0  0  0  0  0  0  0  0
    8.5353   -0.3887   19.2668 C   0  0  0  0  0  0  0  0  0  0  0  0
   13.6527   -1.0945   23.5728 C   0  0  0  0  0  0  0  0  0  0  0  0
    8.0150   -0.5468   20.5412 C   0  0  0  0  0  0  0  0  0  0  0  0
   11.2213   -0.2893   22.4671 C   0  0  0  0  0  0  0  0  0  0  0  0
    7.9974    2.9055   20.5601 C   0  0  0  0  0  0  0  0  0  0  0  0
    8.3881    1.9835   21.4458 C   0  0  0  0  0  0  0  0  0  0  0  0
    9.7924    1.4786   21.4372 C   0  0  0  0  0  0  0  0  0  0  0  0
    8.1248   -0.9549   23.0185 C   0  0  0  0  0  0  0  0  0  0  0  0
    6.0238   -4.5696   26.4692 C   0  0  0  0  0  0  0  0  0  0  0  0
    5.1259   -4.2245   25.2845 C   0  0  0  0  0  0  0  0  0  0  0  0
    6.9585   -3.4161   26.8223 C   0  0  0  0  0  0  0  0  0  0  0  0
    5.9398   -3.7712   24.0737 C   0  0  0  0  0  0  0  0  0  0  0  0
    7.7749   -2.9625   25.6133 C   0  0  0  0  0  0  0  0  0  0  0  0
    6.8687   -2.6054   24.4301 C   0  0  0  0  0  0  0  0  0  0  0  0
   15.9172   -2.0759   23.0683 C   0  0  0  0  0  0  0  0  0  0  0  0
   14.7472   -2.6545   25.2206 C   0  0  0  0  0  0  0  0  0  0  0  0
   15.7578   -0.4053   24.9028 C   0  0  0  0  0  0  0  0  0  0  0  0
    8.9115   -0.8593   21.7167 C   0  0  2  0  0  0  0  0  0  0  0  0
   14.9525   -1.5251   24.1638 C   0  0  0  0  0  0  0  0  0  0  0  0
    7.7899   -0.1093   18.1741 N   0  0  0  0  0  0  0  0  0  0  0  0
    7.6835   -2.2472   23.2706 N   0  0  0  0  0  0  0  0  0  0  0  0
    9.9433    0.1344   21.8858 N   0  0  0  0  0  0  0  0  0  0  0  0
   10.6916    2.2300   21.0589 O   0  0  0  0  0  0  0  0  0  0  0  0
    7.8870    0.0215   23.7269 O   0  0  0  0  0  0  0  0  0  0  0  0
    4.7676   -0.0117   19.7083 H   0  0  0  0  0  0  0  0  0  0  0  0
    6.1859   -0.5251   21.6846 H   0  0  0  0  0  0  0  0  0  0  0  0
   13.1740   -3.0506   22.7915 H   0  0  0  0  0  0  0  0  0  0  0  0
   13.8473    0.9544   24.2280 H   0  0  0  0  0  0  0  0  0  0  0  0
   11.0281   -2.3403   21.8125 H   0  0  0  0  0  0  0  0  0  0  0  0
   11.7001    1.6667   23.2523 H   0  0  0  0  0  0  0  0  0  0  0  0
    5.8783    0.2411   17.4830 H   0  0  0  0  0  0  0  0  0  0  0  0
    9.6001   -0.4842   19.0779 H   0  0  0  0  0  0  0  0  0  0  0  0
    6.9818    3.2862   20.5854 H   0  0  0  0  0  0  0  0  0  0  0  0
    8.6592    3.2966   19.7952 H   0  0  0  0  0  0  0  0  0  0  0  0
    7.6994    1.6309   22.2048 H   0  0  0  0  0  0  0  0  0  0  0  0
    5.4064   -4.8231   27.3383 H   0  0  0  0  0  0  0  0  0  0  0  0
    6.6184   -5.4595   26.2285 H   0  0  0  0  0  0  0  0  0  0  0  0
    4.5198   -5.0968   25.0152 H   0  0  0  0  0  0  0  0  0  0  0  0
    4.4293   -3.4280   25.5742 H   0  0  0  0  0  0  0  0  0  0  0  0
    6.3695   -2.5720   27.2017 H   0  0  0  0  0  0  0  0  0  0  0  0
    7.6339   -3.7227   27.6289 H   0  0  0  0  0  0  0  0  0  0  0  0
    6.5282   -4.6188   23.6991 H   0  0  0  0  0  0  0  0  0  0  0  0
    5.2540   -3.4748   23.2709 H   0  0  0  0  0  0  0  0  0  0  0  0
    8.3843   -2.0956   25.8965 H   0  0  0  0  0  0  0  0  0  0  0  0
    8.4677   -3.7644   25.3268 H   0  0  0  0  0  0  0  0  0  0  0  0
    6.2808   -1.7237   24.6677 H   0  0  0  0  0  0  0  0  0  0  0  0
   16.8815   -2.3998   23.4769 H   0  0  0  0  0  0  0  0  0  0  0  0
   15.4842   -2.9377   22.5487 H   0  0  0  0  0  0  0  0  0  0  0  0
   16.1162   -1.3039   22.3154 H   0  0  0  0  0  0  0  0  0  0  0  0
   15.6999   -2.9736   25.6571 H   0  0  0  0  0  0  0  0  0  0  0  0
   14.1020   -2.3453   26.0513 H   0  0  0  0  0  0  0  0  0  0  0  0
   14.2892   -3.5336   24.7519 H   0  0  0  0  0  0  0  0  0  0  0  0
   16.7044   -0.7704   25.3194 H   0  0  0  0  0  0  0  0  0  0  0  0
   16.0030    0.4152   24.2183 H   0  0  0  0  0  0  0  0  0  0  0  0
   15.1773    0.0070   25.7363 H   0  0  0  0  0  0  0  0  0  0  0  0
    9.4435   -1.8043   21.5533 H   0  0  0  0  0  0  0  0  0  0  0  0
    7.9309   -2.9912   22.6238 H   0  0  0  0  0  0  0  0  0  0  0  0
  1  2  2  0  0  0  0
  1  7  1  0  0  0  0
  2 10  1  0  0  0  0
  3  5  2  0  0  0  0
  3  9  1  0  0  0  0
  4  6  1  0  0  0  0
  4  9  2  0  0  0  0
  5 11  1  0  0  0  0
  6 11  2  0  0  0  0
  7 27  2  0  0  0  0
  8 10  2  0  0  0  0
  8 27  1  0  0  0  0
  9 26  1  0  0  0  0
 10 25  1  0  0  0  0
 11 29  1  0  0  0  0
 12 13  2  0  0  0  0
 13 14  1  0  0  0  0
 14 29  1  0  0  0  0
 14 30  2  0  0  0  0
 15 25  1  0  0  0  0
 15 28  1  0  0  0  0
 15 31  2  0  0  0  0
 16 17  1  0  0  0  0
 16 18  1  0  0  0  0
 17 19  1  0  0  0  0
 18 20  1  0  0  0  0
 19 21  1  0  0  0  0
 20 21  1  0  0  0  0
 21 28  1  0  0  0  0
 22 26  1  0  0  0  0
 23 26  1  0  0  0  0
 24 26  1  0  0  0  0
 25 29  1  0  0  0  0
  1 32  1  0  0  0  0
  2 33  1  0  0  0  0
  3 34  1  0  0  0  0
  4 35  1  0  0  0  0
  5 36  1  0  0  0  0
  6 37  1  0  0  0  0
  7 38  1  0  0  0  0
  8 39  1  0  0  0  0
 12 40  1  0  0  0  0
 12 41  1  0  0  0  0
 13 42  1  0  0  0  0
 16 43  1  0  0  0  0
 16 44  1  0  0  0  0
 17 45  1  0  0  0  0
 17 46  1  0  0  0  0
 18 47  1  0  0  0  0
 18 48  1  0  0  0  0
 19 49  1  0  0  0  0
 19 50  1  0  0  0  0
 20 51  1  0  0  0  0
 20 52  1  0  0  0  0
 21 53  1  0  0  0  0
 22 54  1  0  0  0  0
 22 55  1  0  0  0  0
 22 56  1  0  0  0  0
 23 57  1  0  0  0  0
 23 58  1  0  0  0  0
 23 59  1  0  0  0  0
 24 60  1  0  0  0  0
 24 61  1  0  0  0  0
 24 62  1  0  0  0  0
 25 63  1  0  0  0  0
 28 64  1  0  0  0  0
M  END
> <series>
3-aminopyridine-like

> <r_inhibition_at_20_uM>
0.0

> <r_inhibition_at_50_uM>
18.563245965745924

> <r_IC50>

> <f_inhibition_at_20_uM>
13.34339

> <f_inhibition_at_50_uM>
17.809070000000002

> <f_avg_IC50>

> <f_avg_pIC50>

> <ASSAYED>
True

> <Hybrid2>
-6.806434

> <docked_fragment>
x0678

> <Mpro-_dock>
-5.569283

> <site>
active-noncovalent

$$$$
LON-WEI-adc59df6-6
  -OEChem-07042000473D

 67 69  0     1  0  0  0  0  0999 V2000
    8.2639   -2.7337   24.2936 C   0  0  0  0  0  0  0  0  0  0  0  0
    8.3069   -1.3878   23.9469 C   0  0  0  0  0  0  0  0  0  0  0  0
   13.0068   -1.2026   22.1453 C   0  0  0  0  0  0  0  0  0  0  0  0
   13.0853   -0.5372   24.4665 C   0  0  0  0  0  0  0  0  0  0  0  0
   11.8593   -0.4309   21.9628 C   0  0  0  0  0  0  0  0  0  0  0  0
   11.9378    0.2346   24.2840 C   0  0  0  0  0  0  0  0  0  0  0  0
    8.7972   -3.6504   23.4019 C   0  0  0  0  0  0  0  0  0  0  0  0
    9.3800   -1.9993   21.9145 C   0  0  0  0  0  0  0  0  0  0  0  0
   13.6198   -1.2558   23.3971 C   0  0  0  0  0  0  0  0  0  0  0  0
    8.8738   -1.0052   22.7363 C   0  0  0  0  0  0  0  0  0  0  0  0
   11.3248    0.2877   23.0322 C   0  0  0  0  0  0  0  0  0  0  0  0
    8.5947    4.3439   23.4525 C   0  0  0  0  0  0  0  0  0  0  0  0
    8.9170    3.2403   22.7704 C   0  0  0  0  0  0  0  0  0  0  0  0
   10.1760    2.5026   23.0834 C   0  0  0  0  0  0  0  0  0  0  0  0
    4.6928    1.6793   19.7252 C   0  0  0  0  0  0  0  0  0  0  0  0
    8.9165    0.6158   20.8164 C   0  0  0  0  0  0  0  0  0  0  0  0
    5.1912   -0.5351   18.7082 C   0  0  0  0  0  0  0  0  0  0  0  0
    6.5949   -1.0568   18.4142 C   0  0  0  0  0  0  0  0  0  0  0  0
    6.7507    1.3294   18.3740 C   0  0  0  0  0  0  0  0  0  0  0  0
    5.2683    0.9771   18.5101 C   0  0  2  0  0  0  0  0  0  0  0  0
    7.5146    0.0854   18.8244 C   0  0  1  0  0  0  0  0  0  0  0  0
   16.0031   -1.6043   22.6596 C   0  0  0  0  0  0  0  0  0  0  0  0
   14.5744   -3.5839   23.2731 C   0  0  0  0  0  0  0  0  0  0  0  0
   15.4442   -2.0644   25.0382 C   0  0  0  0  0  0  0  0  0  0  0  0
    4.9344    1.8849   22.0669 C   0  0  0  0  0  0  0  0  0  0  0  0
    8.9362    0.4491   22.3311 C   0  0  2  0  0  0  0  0  0  0  0  0
   14.8466   -2.0810   23.5921 C   0  0  0  0  0  0  0  0  0  0  0  0
    9.3561   -3.3167   22.2171 N   0  0  0  0  0  0  0  0  0  0  0  0
    7.7619    0.0947   20.2449 N   0  0  0  0  0  0  0  0  0  0  0  0
   10.1185    1.0995   22.8406 N   0  0  0  0  0  0  0  0  0  0  0  0
   11.1419    3.1324   23.5152 O   0  0  0  0  0  0  0  0  0  0  0  0
    3.7578    2.4674   19.6823 O   0  0  0  0  0  0  0  0  0  0  0  0
    9.8456    1.1207   20.1892 O   0  0  0  0  0  0  0  0  0  0  0  0
    5.3759    1.2939   20.8405 O   0  0  0  0  0  0  0  0  0  0  0  0
    7.8270   -3.0549   25.2322 H   0  0  0  0  0  0  0  0  0  0  0  0
    7.8968   -0.6449   24.6256 H   0  0  0  0  0  0  0  0  0  0  0  0
   13.4151   -1.7611   21.3070 H   0  0  0  0  0  0  0  0  0  0  0  0
   13.5559   -0.5735   25.4454 H   0  0  0  0  0  0  0  0  0  0  0  0
   11.3901   -0.3964   20.9827 H   0  0  0  0  0  0  0  0  0  0  0  0
   11.5290    0.7898   25.1245 H   0  0  0  0  0  0  0  0  0  0  0  0
    8.7877   -4.7121   23.6258 H   0  0  0  0  0  0  0  0  0  0  0  0
    9.8343   -1.7612   20.9577 H   0  0  0  0  0  0  0  0  0  0  0  0
    7.6669    4.8634   23.2370 H   0  0  0  0  0  0  0  0  0  0  0  0
    9.2326    4.7592   24.2249 H   0  0  0  0  0  0  0  0  0  0  0  0
    8.2431    2.8491   22.0171 H   0  0  0  0  0  0  0  0  0  0  0  0
    4.4560   -0.9932   18.0380 H   0  0  0  0  0  0  0  0  0  0  0  0
    4.9006   -0.7961   19.7332 H   0  0  0  0  0  0  0  0  0  0  0  0
    6.8086   -1.9961   18.9342 H   0  0  0  0  0  0  0  0  0  0  0  0
    6.6979   -1.2446   17.3381 H   0  0  0  0  0  0  0  0  0  0  0  0
    6.9752    1.5158   17.3158 H   0  0  0  0  0  0  0  0  0  0  0  0
    7.0467    2.2286   18.9257 H   0  0  0  0  0  0  0  0  0  0  0  0
    4.7070    1.3047   17.6530 H   0  0  0  0  0  0  0  0  0  0  0  0
    8.4921    0.0176   18.3351 H   0  0  0  0  0  0  0  0  0  0  0  0
   16.9181   -2.1954   22.7833 H   0  0  0  0  0  0  0  0  0  0  0  0
   15.7200   -1.6703   21.6033 H   0  0  0  0  0  0  0  0  0  0  0  0
   16.2515   -0.5570   22.8687 H   0  0  0  0  0  0  0  0  0  0  0  0
   15.4735   -4.1935   23.4151 H   0  0  0  0  0  0  0  0  0  0  0  0
   13.7910   -4.0164   23.9065 H   0  0  0  0  0  0  0  0  0  0  0  0
   14.2605   -3.6990   22.2289 H   0  0  0  0  0  0  0  0  0  0  0  0
   16.3437   -2.6849   25.1310 H   0  0  0  0  0  0  0  0  0  0  0  0
   15.7243   -1.0462   25.3328 H   0  0  0  0  0  0  0  0  0  0  0  0
   14.7161   -2.4424   25.7654 H   0  0  0  0  0  0  0  0  0  0  0  0
    5.5444    1.5108   22.8927 H   0  0  0  0  0  0  0  0  0  0  0  0
    3.8834    1.6364   22.2345 H   0  0  0  0  0  0  0  0  0  0  0  0
    5.0439    2.9698   21.9983 H   0  0  0  0  0  0  0  0  0  0  0  0
    8.0929    1.0037   22.7602 H   0  0  0  0  0  0  0  0  0  0  0  0
    7.0480   -0.3048   20.8494 H   0  0  0  0  0  0  0  0  0  0  0  0
  1  2  2  0  0  0  0
  1  7  1  0  0  0  0
  2 10  1  0  0  0  0
  3  5  2  0  0  0  0
  3  9  1  0  0  0  0
  4  6  1  0  0  0  0
  4  9  2  0  0  0  0
  5 11  1  0  0  0  0
  6 11  2  0  0  0  0
  7 28  2  0  0  0  0
  8 10  2  0  0  0  0
  8 28  1  0  0  0  0
  9 27  1  0  0  0  0
 10 26  1  0  0  0  0
 11 30  1  0  0  0  0
 12 13  2  0  0  0  0
 13 14  1  0  0  0  0
 14 30  1  0  0  0  0
 14 31  2  0  0  0  0
 15 20  1  0  0  0  0
 15 32  2  0  0  0  0
 15 34  1  0  0  0  0
 16 26  1  0  0  0  0
 16 29  1  0  0  0  0
 16 33  2  0  0  0  0
 17 18  1  0  0  0  0
 17 20  1  0  0  0  0
 18 21  1  0  0  0  0
 19 20  1  0  0  0  0
 19 21  1  0  0  0  0
 21 29  1  0  0  0  0
 22 27  1  0  0  0  0
 23 27  1  0  0  0  0
 24 27  1  0  0  0  0
 25 34  1  0  0  0  0
 26 30  1  0  0  0  0
  1 35  1  0  0  0  0
  2 36  1  0  0  0  0
  3 37  1  0  0  0  0
  4 38  1  0  0  0  0
  5 39  1  0  0  0  0
  6 40  1  0  0  0  0
  7 41  1  0  0  0  0
  8 42  1  0  0  0  0
 12 43  1  0  0  0  0
 12 44  1  0  0  0  0
 13 45  1  0  0  0  0
 17 46  1  0  0  0  0
 17 47  1  0  0  0  0
 18 48  1  0  0  0  0
 18 49  1  0  0  0  0
 19 50  1  0  0  0  0
 19 51  1  0  0  0  0
 20 52  1  0  0  0  0
 21 53  1  0  0  0  0
 22 54  1  0  0  0  0
 22 55  1  0  0  0  0
 22 56  1  0  0  0  0
 23 57  1  0  0  0  0
 23 58  1  0  0  0  0
 23 59  1  0  0  0  0
 24 60  1  0  0  0  0
 24 61  1  0  0  0  0
 24 62  1  0  0  0  0
 25 63  1  0  0  0  0
 25 64  1  0  0  0  0
 25 65  1  0  0  0  0
 26 66  1  0  0  0  0
 29 67  1  0  0  0  0
M  END
> <series>
3-aminopyridine-like

> <r_inhibition_at_20_uM>
0.0

> <r_inhibition_at_50_uM>
6.959133874998193

> <r_IC50>

> <f_inhibition_at_20_uM>
7.310613

> <f_inhibition_at_50_uM>
22.161189999999998

> <f_avg_IC50>

> <f_avg_pIC50>

> <ASSAYED>
True

> <Hybrid2>
-6.778266

> <docked_fragment>
x0678

> <Mpro-_dock>
-3.845188

> <site>
active-noncovalent

$$$$
LON-WEI-d1c9908a-8
  -OEChem-07042000473D

 65 68  0     1  0  0  0  0  0999 V2000
    5.4914   -5.7570   24.5465 C   0  0  0  0  0  0  0  0  0  0  0  0
    5.7791    0.6069   19.5793 C   0  0  0  0  0  0  0  0  0  0  0  0
   13.2785   -0.1121   22.6809 C   0  0  0  0  0  0  0  0  0  0  0  0
   12.2952   -2.2113   23.3620 C   0  0  0  0  0  0  0  0  0  0  0  0
    6.6403   -5.1453   25.0478 C   0  0  0  0  0  0  0  0  0  0  0  0
    5.0564   -5.4699   23.2526 C   0  0  0  0  0  0  0  0  0  0  0  0
    6.5775    0.0478   20.5708 C   0  0  0  0  0  0  0  0  0  0  0  0
   12.0335    0.3241   22.2279 C   0  0  0  0  0  0  0  0  0  0  0  0
   11.0502   -1.7750   22.9090 C   0  0  0  0  0  0  0  0  0  0  0  0
    6.2772    0.6387   18.2867 C   0  0  0  0  0  0  0  0  0  0  0  0
    8.2380   -0.3762   18.9218 C   0  0  0  0  0  0  0  0  0  0  0  0
   13.4094   -1.3799   23.2479 C   0  0  0  0  0  0  0  0  0  0  0  0
    7.8319   -0.4554   20.2442 C   0  0  0  0  0  0  0  0  0  0  0  0
    7.3542   -4.2464   24.2554 C   0  0  0  0  0  0  0  0  0  0  0  0
    5.7703   -4.5710   22.4602 C   0  0  0  0  0  0  0  0  0  0  0  0
   10.9193   -0.5073   22.3420 C   0  0  0  0  0  0  0  0  0  0  0  0
    6.9192   -3.9592   22.9615 C   0  0  0  0  0  0  0  0  0  0  0  0
   10.1117    3.4132   22.8372 C   0  0  0  0  0  0  0  0  0  0  0  0
    9.8465    2.1135   23.0031 C   0  0  0  0  0  0  0  0  0  0  0  0
    9.2750    1.3125   21.8810 C   0  0  0  0  0  0  0  0  0  0  0  0
    7.9087   -1.7060   22.4232 C   0  0  0  0  0  0  0  0  0  0  0  0
   15.8720   -1.9314   22.7245 C   0  0  0  0  0  0  0  0  0  0  0  0
   15.2441   -3.1896   23.2371 C   0  0  0  0  0  0  0  0  0  0  0  0
   14.7395   -1.8460   23.7318 C   0  0  0  0  0  0  0  0  0  0  0  0
    8.5812   -3.6070   24.8206 C   0  0  0  0  0  0  0  0  0  0  0  0
   15.0813   -1.4428   25.1393 C   0  0  0  0  0  0  0  0  0  0  0  0
    5.6102   -5.4093   20.1026 C   0  0  0  0  0  0  0  0  0  0  0  0
    5.2791   -4.2845   21.0782 C   0  0  0  0  0  0  0  0  0  0  0  0
    8.7239   -1.0704   21.2998 C   0  0  2  0  0  0  0  0  0  0  0  0
    7.4904    0.1599   17.9312 N   0  0  0  0  0  0  0  0  0  0  0  0
    7.6432   -3.0470   22.1576 N   0  0  0  0  0  0  0  0  0  0  0  0
    9.6227   -0.0531   21.8701 N   0  0  0  0  0  0  0  0  0  0  0  0
    8.5640    1.8776   21.0497 O   0  0  0  0  0  0  0  0  0  0  0  0
    7.5519   -1.0608   23.4054 O   0  0  0  0  0  0  0  0  0  0  0  0
    4.9355   -6.4572   25.1633 H   0  0  0  0  0  0  0  0  0  0  0  0
    4.7978    1.0050   19.8108 H   0  0  0  0  0  0  0  0  0  0  0  0
   14.1406    0.5431   22.5876 H   0  0  0  0  0  0  0  0  0  0  0  0
   12.3875   -3.2006   23.8024 H   0  0  0  0  0  0  0  0  0  0  0  0
    6.9708   -5.3753   26.0574 H   0  0  0  0  0  0  0  0  0  0  0  0
    4.1603   -5.9524   22.8714 H   0  0  0  0  0  0  0  0  0  0  0  0
    6.2144    0.0082   21.5942 H   0  0  0  0  0  0  0  0  0  0  0  0
   11.9432    1.3140   21.7876 H   0  0  0  0  0  0  0  0  0  0  0  0
   10.1890   -2.4317   23.0031 H   0  0  0  0  0  0  0  0  0  0  0  0
    5.6932    1.0648   17.4775 H   0  0  0  0  0  0  0  0  0  0  0  0
    9.2065   -0.7523   18.6071 H   0  0  0  0  0  0  0  0  0  0  0  0
   10.5488    3.9857   23.6487 H   0  0  0  0  0  0  0  0  0  0  0  0
    9.9011    3.9379   21.9119 H   0  0  0  0  0  0  0  0  0  0  0  0
   10.0877    1.6234   23.9393 H   0  0  0  0  0  0  0  0  0  0  0  0
   16.8778   -1.6996   23.0551 H   0  0  0  0  0  0  0  0  0  0  0  0
   15.6761   -1.6548   21.6948 H   0  0  0  0  0  0  0  0  0  0  0  0
   14.6274   -3.7585   22.5507 H   0  0  0  0  0  0  0  0  0  0  0  0
   15.8267   -3.8045   23.9134 H   0  0  0  0  0  0  0  0  0  0  0  0
    9.4631   -4.2189   24.6001 H   0  0  0  0  0  0  0  0  0  0  0  0
    8.7350   -2.6061   24.3997 H   0  0  0  0  0  0  0  0  0  0  0  0
    8.4999   -3.4881   25.9078 H   0  0  0  0  0  0  0  0  0  0  0  0
   16.0709   -1.8193   25.4265 H   0  0  0  0  0  0  0  0  0  0  0  0
   14.3487   -1.8424   25.8513 H   0  0  0  0  0  0  0  0  0  0  0  0
   15.0925   -0.3507   25.2434 H   0  0  0  0  0  0  0  0  0  0  0  0
    6.6888   -5.5973   20.0698 H   0  0  0  0  0  0  0  0  0  0  0  0
    5.2800   -5.1523   19.0913 H   0  0  0  0  0  0  0  0  0  0  0  0
    5.1154   -6.3419   20.3943 H   0  0  0  0  0  0  0  0  0  0  0  0
    4.1904   -4.1217   21.0869 H   0  0  0  0  0  0  0  0  0  0  0  0
    5.7134   -3.3435   20.7068 H   0  0  0  0  0  0  0  0  0  0  0  0
    9.3600   -1.8439   20.8520 H   0  0  0  0  0  0  0  0  0  0  0  0
    8.0131   -3.4139   21.2832 H   0  0  0  0  0  0  0  0  0  0  0  0
  1  5  1  0  0  0  0
  1  6  2  0  0  0  0
  2  7  2  0  0  0  0
  2 10  1  0  0  0  0
  3  8  2  0  0  0  0
  3 12  1  0  0  0  0
  4  9  1  0  0  0  0
  4 12  2  0  0  0  0
  5 14  2  0  0  0  0
  6 15  1  0  0  0  0
  7 13  1  0  0  0  0
  8 16  1  0  0  0  0
  9 16  2  0  0  0  0
 10 30  2  0  0  0  0
 11 13  2  0  0  0  0
 11 30  1  0  0  0  0
 12 24  1  0  0  0  0
 13 29  1  0  0  0  0
 14 17  1  0  0  0  0
 14 25  1  0  0  0  0
 15 17  2  0  0  0  0
 15 28  1  0  0  0  0
 16 32  1  0  0  0  0
 17 31  1  0  0  0  0
 18 19  2  0  0  0  0
 19 20  1  0  0  0  0
 20 32  1  0  0  0  0
 20 33  2  0  0  0  0
 21 29  1  0  0  0  0
 21 31  1  0  0  0  0
 21 34  2  0  0  0  0
 22 23  1  0  0  0  0
 22 24  1  0  0  0  0
 23 24  1  0  0  0  0
 24 26  1  0  0  0  0
 27 28  1  0  0  0  0
 29 32  1  0  0  0  0
  1 35  1  0  0  0  0
  2 36  1  0  0  0  0
  3 37  1  0  0  0  0
  4 38  1  0  0  0  0
  5 39  1  0  0  0  0
  6 40  1  0  0  0  0
  7 41  1  0  0  0  0
  8 42  1  0  0  0  0
  9 43  1  0  0  0  0
 10 44  1  0  0  0  0
 11 45  1  0  0  0  0
 18 46  1  0  0  0  0
 18 47  1  0  0  0  0
 19 48  1  0  0  0  0
 22 49  1  0  0  0  0
 22 50  1  0  0  0  0
 23 51  1  0  0  0  0
 23 52  1  0  0  0  0
 25 53  1  0  0  0  0
 25 54  1  0  0  0  0
 25 55  1  0  0  0  0
 26 56  1  0  0  0  0
 26 57  1  0  0  0  0
 26 58  1  0  0  0  0
 27 59  1  0  0  0  0
 27 60  1  0  0  0  0
 27 61  1  0  0  0  0
 28 62  1  0  0  0  0
 28 63  1  0  0  0  0
 29 64  1  0  0  0  0
 31 65  1  0  0  0  0
M  END
> <series>
3-aminopyridine-like

> <r_inhibition_at_20_uM>
0.0

> <r_inhibition_at_50_uM>
20.395

> <r_IC50>

> <f_inhibition_at_20_uM>

> <f_inhibition_at_50_uM>
20.94313

> <f_avg_IC50>

> <f_avg_pIC50>

> <ASSAYED>
True

> <Hybrid2>
-6.438222

> <docked_fragment>
x0678

> <Mpro-_dock>
-5.883657

> <site>
active-noncovalent

$$$$
RAL-MED-2de63afb-6
  -OEChem-07042000473D

 38 40  0     1  0  0  0  0  0999 V2000
   14.2075   -2.6797   23.5740 C   0  0  0  0  0  0  0  0  0  0  0  0
   14.6713   -1.7533   24.5078 C   0  0  0  0  0  0  0  0  0  0  0  0
   13.2747   -2.2928   22.6117 C   0  0  0  0  0  0  0  0  0  0  0  0
    6.9187   -0.2344   24.2950 C   0  0  0  0  0  0  0  0  0  0  0  0
   14.2024   -0.4399   24.4794 C   0  0  0  0  0  0  0  0  0  0  0  0
   12.8058   -0.9794   22.5833 C   0  0  0  0  0  0  0  0  0  0  0  0
    8.2985   -0.1191   24.4634 C   0  0  0  0  0  0  0  0  0  0  0  0
    6.2881    0.4200   23.2367 C   0  0  0  0  0  0  0  0  0  0  0  0
    8.4172    1.3052   22.5155 C   0  0  0  0  0  0  0  0  0  0  0  0
   13.2696   -0.0530   23.5172 C   0  0  0  0  0  0  0  0  0  0  0  0
    9.0478    0.6507   23.5737 C   0  0  0  0  0  0  0  0  0  0  0  0
    7.0374    1.1898   22.3471 C   0  0  0  0  0  0  0  0  0  0  0  0
    6.1599    0.7064   18.3488 C   0  0  0  0  0  0  0  0  0  0  0  0
   11.3422    1.4881   22.9576 C   0  0  0  0  0  0  0  0  0  0  0  0
    5.2633    1.7203   19.0775 C   0  0  0  0  0  0  0  0  0  0  0  0
    5.7205    1.0166   20.3744 C   0  0  1  0  0  0  0  0  0  0  0  0
   12.7676    1.3512   23.4864 C   0  0  0  0  0  0  0  0  0  0  0  0
    6.5342    0.1502   19.5303 N   0  0  0  0  0  0  0  0  0  0  0  0
   10.4478    0.7673   23.7449 N   0  0  0  0  0  0  0  0  0  0  0  0
    6.4515    0.4606   17.2013 O   0  0  0  0  0  0  0  0  0  0  0  0
   11.0833    2.1586   21.9633 O   0  0  0  0  0  0  0  0  0  0  0  0
    6.4221    1.8286   21.3145 O   0  0  0  0  0  0  0  0  0  0  0  0
   14.5737   -3.7020   23.5953 H   0  0  0  0  0  0  0  0  0  0  0  0
   15.3984   -2.0541   25.2564 H   0  0  0  0  0  0  0  0  0  0  0  0
   12.9142   -3.0136   21.8838 H   0  0  0  0  0  0  0  0  0  0  0  0
    6.3358   -0.8347   24.9873 H   0  0  0  0  0  0  0  0  0  0  0  0
   14.5693    0.2751   25.2111 H   0  0  0  0  0  0  0  0  0  0  0  0
   12.0790   -0.6870   21.8300 H   0  0  0  0  0  0  0  0  0  0  0  0
    8.7791   -0.6331   25.2920 H   0  0  0  0  0  0  0  0  0  0  0  0
    5.2132    0.3254   23.1109 H   0  0  0  0  0  0  0  0  0  0  0  0
    8.9973    1.9063   21.8188 H   0  0  0  0  0  0  0  0  0  0  0  0
    5.5876    2.7575   18.9593 H   0  0  0  0  0  0  0  0  0  0  0  0
    4.1998    1.6263   18.8444 H   0  0  0  0  0  0  0  0  0  0  0  0
    4.9227    0.4522   20.8705 H   0  0  0  0  0  0  0  0  0  0  0  0
   12.7999    1.7917   24.4966 H   0  0  0  0  0  0  0  0  0  0  0  0
   13.4256    1.9782   22.8626 H   0  0  0  0  0  0  0  0  0  0  0  0
    7.1554   -0.6239   19.7215 H   0  0  0  0  0  0  0  0  0  0  0  0
   10.8475    0.2658   24.5354 H   0  0  0  0  0  0  0  0  0  0  0  0
  1  2  1  0  0  0  0
  1  3  2  0  0  0  0
  2  5  2  0  0  0  0
  3  6  1  0  0  0  0
  4  7  2  0  0  0  0
  4  8  1  0  0  0  0
  5 10  1  0  0  0  0
  6 10  2  0  0  0  0
  7 11  1  0  0  0  0
  8 12  2  0  0  0  0
  9 11  2  0  0  0  0
  9 12  1  0  0  0  0
 10 17  1  0  0  0  0
 11 19  1  0  0  0  0
 12 22  1  0  0  0  0
 13 15  1  0  0  0  0
 13 18  1  0  0  0  0
 13 20  2  0  0  0  0
 14 17  1  0  0  0  0
 14 19  1  0  0  0  0
 14 21  2  0  0  0  0
 15 16  1  0  0  0  0
 16 18  1  0  0  0  0
 16 22  1  0  0  0  0
  1 23  1  0  0  0  0
  2 24  1  0  0  0  0
  3 25  1  0  0  0  0
  4 26  1  0  0  0  0
  5 27  1  0  0  0  0
  6 28  1  0  0  0  0
  7 29  1  0  0  0  0
  8 30  1  0  0  0  0
  9 31  1  0  0  0  0
 15 32  1  0  0  0  0
 15 33  1  0  0  0  0
 16 34  1  0  0  0  0
 17 35  1  0  0  0  0
 17 36  1  0  0  0  0
 18 37  1  0  0  0  0
 19 38  1  0  0  0  0
M  END
> <series>
3-aminopyridine-like

> <r_inhibition_at_20_uM>

> <r_inhibition_at_50_uM>
0.0

> <r_IC50>

> <f_inhibition_at_20_uM>
-2.2828535

> <f_inhibition_at_50_uM>
-0.8075459999999999

> <f_avg_IC50>

> <f_avg_pIC50>

> <ASSAYED>
True

> <Hybrid2>
-6.354199

> <docked_fragment>
x0678

> <Mpro-_dock>
-6.189013

> <site>
active-noncovalent

$$$$
LON-WEI-b8d98729-2
  -OEChem-07042000473D

 59 61  0     1  0  0  0  0  0999 V2000
    4.0895   -5.4313   24.2450 C   0  0  0  0  0  0  0  0  0  0  0  0
    5.6131    0.8081   19.3444 C   0  0  0  0  0  0  0  0  0  0  0  0
    3.8734   -5.1322   22.8999 C   0  0  0  0  0  0  0  0  0  0  0  0
    5.1974   -4.9031   24.9077 C   0  0  0  0  0  0  0  0  0  0  0  0
    6.2095    0.2044   20.4458 C   0  0  0  0  0  0  0  0  0  0  0  0
   11.3861    0.5553   22.2090 C   0  0  0  0  0  0  0  0  0  0  0  0
   10.8153   -1.7873   22.3618 C   0  0  0  0  0  0  0  0  0  0  0  0
   12.7407    0.2297   22.2763 C   0  0  0  0  0  0  0  0  0  0  0  0
   12.1699   -2.1130   22.4291 C   0  0  0  0  0  0  0  0  0  0  0  0
    6.2967    0.7792   18.1396 C   0  0  0  0  0  0  0  0  0  0  0  0
    8.0550   -0.3762   19.0626 C   0  0  0  0  0  0  0  0  0  0  0  0
    7.4538   -0.4012   20.3107 C   0  0  0  0  0  0  0  0  0  0  0  0
    4.7653   -4.3050   22.2174 C   0  0  0  0  0  0  0  0  0  0  0  0
    6.0893   -4.0759   24.2252 C   0  0  0  0  0  0  0  0  0  0  0  0
   10.4233   -0.4532   22.2518 C   0  0  0  0  0  0  0  0  0  0  0  0
    5.8733   -3.7768   22.8800 C   0  0  0  0  0  0  0  0  0  0  0  0
   13.1326   -1.1045   22.3863 C   0  0  0  0  0  0  0  0  0  0  0  0
    9.3154    2.9661   24.0816 C   0  0  0  0  0  0  0  0  0  0  0  0
    9.2387    1.6473   23.8770 C   0  0  0  0  0  0  0  0  0  0  0  0
    8.5268    1.1113   22.6799 C   0  0  0  0  0  0  0  0  0  0  0  0
    7.1088   -1.6176   22.4831 C   0  0  0  0  0  0  0  0  0  0  0  0
    4.5070   -4.0028   20.7766 C   0  0  0  0  0  0  0  0  0  0  0  0
    8.5582   -4.2614   24.6214 C   0  0  0  0  0  0  0  0  0  0  0  0
   14.8967   -2.3417   24.0805 C   0  0  0  0  0  0  0  0  0  0  0  0
    7.2666   -3.5253   24.9630 C   0  0  0  0  0  0  0  0  0  0  0  0
    8.1287   -1.0669   21.4896 C   0  0  2  0  0  0  0  0  0  0  0  0
    7.5066    0.2005   17.9697 N   0  0  0  0  0  0  0  0  0  0  0  0
    6.7785   -2.9378   22.1877 N   0  0  0  0  0  0  0  0  0  0  0  0
    9.0126   -0.1141   22.1817 N   0  0  0  0  0  0  0  0  0  0  0  0
    7.5922    1.7577   22.2056 O   0  0  0  0  0  0  0  0  0  0  0  0
    6.6644   -0.9301   23.3986 O   0  0  0  0  0  0  0  0  0  0  0  0
   14.8633   -1.5202   22.4723 S   0  0  0  0  0  0  0  0  0  0  0  0
    3.3949   -6.0752   24.7767 H   0  0  0  0  0  0  0  0  0  0  0  0
    4.6435    1.2860   19.4264 H   0  0  0  0  0  0  0  0  0  0  0  0
    3.0074   -5.5491   22.3924 H   0  0  0  0  0  0  0  0  0  0  0  0
    5.3562   -5.1419   25.9561 H   0  0  0  0  0  0  0  0  0  0  0  0
    5.6979    0.2105   21.4045 H   0  0  0  0  0  0  0  0  0  0  0  0
   11.0918    1.5984   22.1237 H   0  0  0  0  0  0  0  0  0  0  0  0
   10.0737   -2.5815   22.3961 H   0  0  0  0  0  0  0  0  0  0  0  0
   13.4764    1.0294   22.2416 H   0  0  0  0  0  0  0  0  0  0  0  0
   12.4561   -3.1584   22.5145 H   0  0  0  0  0  0  0  0  0  0  0  0
    5.8742    1.2364   17.2509 H   0  0  0  0  0  0  0  0  0  0  0  0
    9.0259   -0.8325   18.8964 H   0  0  0  0  0  0  0  0  0  0  0  0
    9.8541    3.3515   24.9410 H   0  0  0  0  0  0  0  0  0  0  0  0
    8.8497    3.6872   23.4189 H   0  0  0  0  0  0  0  0  0  0  0  0
    9.7326    0.9611   24.5552 H   0  0  0  0  0  0  0  0  0  0  0  0
    3.8871   -3.1041   20.6833 H   0  0  0  0  0  0  0  0  0  0  0  0
    5.4451   -3.8396   20.2326 H   0  0  0  0  0  0  0  0  0  0  0  0
    3.9922   -4.8366   20.2841 H   0  0  0  0  0  0  0  0  0  0  0  0
    8.4689   -5.3323   24.8333 H   0  0  0  0  0  0  0  0  0  0  0  0
    9.3933   -3.8679   25.2093 H   0  0  0  0  0  0  0  0  0  0  0  0
    8.8070   -4.1483   23.5608 H   0  0  0  0  0  0  0  0  0  0  0  0
   15.9126   -2.6748   24.3067 H   0  0  0  0  0  0  0  0  0  0  0  0
   14.2318   -3.2089   24.0681 H   0  0  0  0  0  0  0  0  0  0  0  0
   14.5662   -1.6489   24.8581 H   0  0  0  0  0  0  0  0  0  0  0  0
    7.3900   -2.4546   24.7388 H   0  0  0  0  0  0  0  0  0  0  0  0
    7.0952   -3.5798   26.0491 H   0  0  0  0  0  0  0  0  0  0  0  0
    8.7595   -1.8954   21.1445 H   0  0  0  0  0  0  0  0  0  0  0  0
    7.2422   -3.3471   21.3793 H   0  0  0  0  0  0  0  0  0  0  0  0
  1  3  1  0  0  0  0
  1  4  2  0  0  0  0
  2  5  2  0  0  0  0
  2 10  1  0  0  0  0
  3 13  2  0  0  0  0
  4 14  1  0  0  0  0
  5 12  1  0  0  0  0
  6  8  2  0  0  0  0
  6 15  1  0  0  0  0
  7  9  1  0  0  0  0
  7 15  2  0  0  0  0
  8 17  1  0  0  0  0
  9 17  2  0  0  0  0
 10 27  2  0  0  0  0
 11 12  2  0  0  0  0
 11 27  1  0  0  0  0
 12 26  1  0  0  0  0
 13 16  1  0  0  0  0
 13 22  1  0  0  0  0
 14 16  2  0  0  0  0
 14 25  1  0  0  0  0
 15 29  1  0  0  0  0
 16 28  1  0  0  0  0
 17 32  1  0  0  0  0
 18 19  2  0  0  0  0
 19 20  1  0  0  0  0
 20 29  1  0  0  0  0
 20 30  2  0  0  0  0
 21 26  1  0  0  0  0
 21 28  1  0  0  0  0
 21 31  2  0  0  0  0
 23 25  1  0  0  0  0
 24 32  1  0  0  0  0
 26 29  1  0  0  0  0
  1 33  1  0  0  0  0
  2 34  1  0  0  0  0
  3 35  1  0  0  0  0
  4 36  1  0  0  0  0
  5 37  1  0  0  0  0
  6 38  1  0  0  0  0
  7 39  1  0  0  0  0
  8 40  1  0  0  0  0
  9 41  1  0  0  0  0
 10 42  1  0  0  0  0
 11 43  1  0  0  0  0
 18 44  1  0  0  0  0
 18 45  1  0  0  0  0
 19 46  1  0  0  0  0
 22 47  1  0  0  0  0
 22 48  1  0  0  0  0
 22 49  1  0  0  0  0
 23 50  1  0  0  0  0
 23 51  1  0  0  0  0
 23 52  1  0  0  0  0
 24 53  1  0  0  0  0
 24 54  1  0  0  0  0
 24 55  1  0  0  0  0
 25 56  1  0  0  0  0
 25 57  1  0  0  0  0
 26 58  1  0  0  0  0
 28 59  1  0  0  0  0
M  END
> <series>
3-aminopyridine-like

> <r_inhibition_at_20_uM>
0.0

> <r_inhibition_at_50_uM>

> <r_IC50>

> <f_inhibition_at_20_uM>
11.082635

> <f_inhibition_at_50_uM>
24.534565

> <f_avg_IC50>

> <f_avg_pIC50>

> <ASSAYED>
True

> <Hybrid2>
-6.295724

> <docked_fragment>
x0678

> <Mpro-_dock>
-5.925219

> <site>
active-noncovalent

$$$$
LON-WEI-b8d98729-8
  -OEChem-07042000473D

 63 65  0     1  0  0  0  0  0999 V2000
    6.1610   -0.3558   19.2835 C   0  0  0  0  0  0  0  0  0  0  0  0
    7.0025   -0.7782   20.3065 C   0  0  0  0  0  0  0  0  0  0  0  0
   13.8889   -0.1906   22.5861 C   0  0  0  0  0  0  0  0  0  0  0  0
   13.1064   -2.4763   22.6031 C   0  0  0  0  0  0  0  0  0  0  0  0
   12.6365    0.2348   22.1433 C   0  0  0  0  0  0  0  0  0  0  0  0
   11.8540   -2.0509   22.1603 C   0  0  0  0  0  0  0  0  0  0  0  0
    7.0943   -2.9587   24.6508 C   0  0  0  0  0  0  0  0  0  0  0  0
    6.3980   -3.6125   25.6673 C   0  0  0  0  0  0  0  0  0  0  0  0
    6.5138   -5.6775   24.4185 C   0  0  0  0  0  0  0  0  0  0  0  0
    6.7365   -0.0089   18.0718 C   0  0  0  0  0  0  0  0  0  0  0  0
    8.8510   -0.4718   18.8418 C   0  0  0  0  0  0  0  0  0  0  0  0
   14.1239   -1.5462   22.8160 C   0  0  0  0  0  0  0  0  0  0  0  0
    8.3746   -0.8401   20.0896 C   0  0  0  0  0  0  0  0  0  0  0  0
    7.2101   -5.0237   23.4019 C   0  0  0  0  0  0  0  0  0  0  0  0
   11.6191   -0.6953   21.9303 C   0  0  0  0  0  0  0  0  0  0  0  0
    7.5002   -3.6643   23.5180 C   0  0  0  0  0  0  0  0  0  0  0  0
    6.1078   -4.9719   25.5512 C   0  0  0  0  0  0  0  0  0  0  0  0
    8.1288    2.5260   20.6375 C   0  0  0  0  0  0  0  0  0  0  0  0
    8.6163    1.5177   21.3674 C   0  0  0  0  0  0  0  0  0  0  0  0
   10.0451    1.1095   21.2281 C   0  0  0  0  0  0  0  0  0  0  0  0
    8.5642   -1.6377   22.4658 C   0  0  0  0  0  0  0  0  0  0  0  0
    7.6323   -5.8048   22.2001 C   0  0  0  0  0  0  0  0  0  0  0  0
   16.1138   -3.0212   22.3541 C   0  0  0  0  0  0  0  0  0  0  0  0
    5.1657   -7.0002   26.3601 C   0  0  0  0  0  0  0  0  0  0  0  0
   15.2412   -1.6207   25.5980 C   0  0  0  0  0  0  0  0  0  0  0  0
    9.3165   -1.2961   21.1820 C   0  0  2  0  0  0  0  0  0  0  0  0
   15.4630   -2.0010   23.2895 C   0  0  2  0  0  0  0  0  0  0  0  0
    8.0646   -0.0562   17.8237 N   0  0  0  0  0  0  0  0  0  0  0  0
    8.2037   -2.9826   22.4968 N   0  0  0  0  0  0  0  0  0  0  0  0
   10.3146   -0.2525   21.4694 N   0  0  0  0  0  0  0  0  0  0  0  0
   10.8806    1.9636   20.9305 O   0  0  0  0  0  0  0  0  0  0  0  0
    8.3270   -0.7876   23.3197 O   0  0  0  0  0  0  0  0  0  0  0  0
    5.4289   -5.6100   26.5436 O   0  0  0  0  0  0  0  0  0  0  0  0
   15.3226   -2.6043   24.5809 O   0  0  0  0  0  0  0  0  0  0  0  0
    5.0883   -0.3000   19.4299 H   0  0  0  0  0  0  0  0  0  0  0  0
    6.5809   -1.0572   21.2684 H   0  0  0  0  0  0  0  0  0  0  0  0
   14.6765    0.5408   22.7473 H   0  0  0  0  0  0  0  0  0  0  0  0
   13.2810   -3.5345   22.7790 H   0  0  0  0  0  0  0  0  0  0  0  0
   12.4644    1.2938   21.9677 H   0  0  0  0  0  0  0  0  0  0  0  0
   11.0685   -2.7844   21.9965 H   0  0  0  0  0  0  0  0  0  0  0  0
    7.3138   -1.8986   24.7520 H   0  0  0  0  0  0  0  0  0  0  0  0
    6.0848   -3.0575   26.5474 H   0  0  0  0  0  0  0  0  0  0  0  0
    6.2857   -6.7371   24.3307 H   0  0  0  0  0  0  0  0  0  0  0  0
    6.1231    0.3272   17.2423 H   0  0  0  0  0  0  0  0  0  0  0  0
    9.9121   -0.4997   18.6139 H   0  0  0  0  0  0  0  0  0  0  0  0
    7.0956    2.8340   20.7594 H   0  0  0  0  0  0  0  0  0  0  0  0
    8.7271    3.0602   19.9078 H   0  0  0  0  0  0  0  0  0  0  0  0
    7.9886    1.0206   22.0978 H   0  0  0  0  0  0  0  0  0  0  0  0
    6.8497   -5.7735   21.4335 H   0  0  0  0  0  0  0  0  0  0  0  0
    8.5583   -5.4024   21.7720 H   0  0  0  0  0  0  0  0  0  0  0  0
    7.8281   -6.8527   22.4582 H   0  0  0  0  0  0  0  0  0  0  0  0
   15.4588   -3.8836   22.1942 H   0  0  0  0  0  0  0  0  0  0  0  0
   17.0670   -3.3811   22.7575 H   0  0  0  0  0  0  0  0  0  0  0  0
   16.3402   -2.5701   21.3817 H   0  0  0  0  0  0  0  0  0  0  0  0
    4.6186   -7.3854   27.2240 H   0  0  0  0  0  0  0  0  0  0  0  0
    6.1098   -7.5384   26.2437 H   0  0  0  0  0  0  0  0  0  0  0  0
    4.5604   -7.1316   25.4601 H   0  0  0  0  0  0  0  0  0  0  0  0
   15.1349   -2.1086   26.5700 H   0  0  0  0  0  0  0  0  0  0  0  0
   14.3836   -0.9701   25.4091 H   0  0  0  0  0  0  0  0  0  0  0  0
   16.1569   -1.0247   25.5902 H   0  0  0  0  0  0  0  0  0  0  0  0
    9.8691   -2.1859   20.8562 H   0  0  0  0  0  0  0  0  0  0  0  0
   16.1647   -1.1586   23.4133 H   0  0  0  0  0  0  0  0  0  0  0  0
    8.4783   -3.5402   21.6908 H   0  0  0  0  0  0  0  0  0  0  0  0
  1  2  2  0  0  0  0
  1 10  1  0  0  0  0
  2 13  1  0  0  0  0
  3  5  2  0  0  0  0
  3 12  1  0  0  0  0
  4  6  1  0  0  0  0
  4 12  2  0  0  0  0
  5 15  1  0  0  0  0
  6 15  2  0  0  0  0
  7  8  2  0  0  0  0
  7 16  1  0  0  0  0
  8 17  1  0  0  0  0
  9 14  1  0  0  0  0
  9 17  2  0  0  0  0
 10 28  2  0  0  0  0
 11 13  2  0  0  0  0
 11 28  1  0  0  0  0
 12 27  1  0  0  0  0
 13 26  1  0  0  0  0
 14 16  2  0  0  0  0
 14 22  1  0  0  0  0
 15 30  1  0  0  0  0
 16 29  1  0  0  0  0
 17 33  1  0  0  0  0
 18 19  2  0  0  0  0
 19 20  1  0  0  0  0
 20 30  1  0  0  0  0
 20 31  2  0  0  0  0
 21 26  1  0  0  0  0
 21 29  1  0  0  0  0
 21 32  2  0  0  0  0
 23 27  1  0  0  0  0
 24 33  1  0  0  0  0
 25 34  1  0  0  0  0
 26 30  1  0  0  0  0
 27 34  1  0  0  0  0
  1 35  1  0  0  0  0
  2 36  1  0  0  0  0
  3 37  1  0  0  0  0
  4 38  1  0  0  0  0
  5 39  1  0  0  0  0
  6 40  1  0  0  0  0
  7 41  1  0  0  0  0
  8 42  1  0  0  0  0
  9 43  1  0  0  0  0
 10 44  1  0  0  0  0
 11 45  1  0  0  0  0
 18 46  1  0  0  0  0
 18 47  1  0  0  0  0
 19 48  1  0  0  0  0
 22 49  1  0  0  0  0
 22 50  1  0  0  0  0
 22 51  1  0  0  0  0
 23 52  1  0  0  0  0
 23 53  1  0  0  0  0
 23 54  1  0  0  0  0
 24 55  1  0  0  0  0
 24 56  1  0  0  0  0
 24 57  1  0  0  0  0
 25 58  1  0  0  0  0
 25 59  1  0  0  0  0
 25 60  1  0  0  0  0
 26 61  1  0  0  0  0
 27 62  1  0  0  0  0
 29 63  1  0  0  0  0
M  END
> <series>
3-aminopyridine-like

> <r_inhibition_at_20_uM>
0.0

> <r_inhibition_at_50_uM>

> <r_IC50>

> <f_inhibition_at_20_uM>
2.909986

> <f_inhibition_at_50_uM>
6.899891

> <f_avg_IC50>

> <f_avg_pIC50>

> <ASSAYED>
True

> <Hybrid2>
-6.061841

> <docked_fragment>
x0678

> <Mpro-_dock>
-4.474208

> <site>
active-noncovalent

$$$$
IAN-BAS-36ca50f1-1
  -OEChem-07042000473D

 51 53  0     0  0  0  0  0  0999 V2000
    4.9137    1.6599   19.9019 C   0  0  0  0  0  0  0  0  0  0  0  0
    7.8452   -4.5628   25.2664 C   0  0  0  0  0  0  0  0  0  0  0  0
    5.6948    1.9714   18.7946 C   0  0  0  0  0  0  0  0  0  0  0  0
    7.0731   -4.5231   24.1054 C   0  0  0  0  0  0  0  0  0  0  0  0
    8.8443   -3.6115   25.4725 C   0  0  0  0  0  0  0  0  0  0  0  0
    4.8525    0.3469   20.3554 C   0  0  0  0  0  0  0  0  0  0  0  0
    8.2993   -2.5807   23.3565 C   0  0  0  0  0  0  0  0  0  0  0  0
   10.9314    2.7069   24.7941 C   0  0  0  0  0  0  0  0  0  0  0  0
    6.3900    0.9419   18.1810 C   0  0  0  0  0  0  0  0  0  0  0  0
   11.9641    3.5170   22.9645 C   0  0  0  0  0  0  0  0  0  0  0  0
    7.3002   -3.5321   23.1504 C   0  0  0  0  0  0  0  0  0  0  0  0
    9.0714   -2.6205   24.5176 C   0  0  0  0  0  0  0  0  0  0  0  0
   11.1974    3.8821   24.0490 C   0  0  0  0  0  0  0  0  0  0  0  0
    5.5852   -0.6099   19.6718 C   0  0  0  0  0  0  0  0  0  0  0  0
   11.5439    1.6593   24.1423 C   0  0  0  0  0  0  0  0  0  0  0  0
    6.4946   -3.4918   21.9405 C   0  0  0  0  0  0  0  0  0  0  0  0
   10.4440   -0.6051   23.8858 C   0  0  0  0  0  0  0  0  0  0  0  0
   12.9313    1.4005   22.0682 C   0  0  0  0  0  0  0  0  0  0  0  0
    5.5425   -2.0379   20.1335 C   0  0  0  0  0  0  0  0  0  0  0  0
   11.5856    0.1950   24.4930 C   0  0  0  0  0  0  0  0  0  0  0  0
    6.3552   -0.3454   18.5925 N   0  0  0  0  0  0  0  0  0  0  0  0
   12.1688    2.1635   23.0317 N   0  0  0  0  0  0  0  0  0  0  0  0
   11.9451    6.0527   25.4033 N   0  0  0  0  0  0  0  0  0  0  0  0
   10.0706   -1.6688   24.7241 N   0  0  0  0  0  0  0  0  0  0  0  0
    6.3319   -2.2444   21.3264 N   0  0  0  0  0  0  0  0  0  0  0  0
    5.9653   -4.5275   21.4995 O   0  0  0  0  0  0  0  0  0  0  0  0
    9.9484   -0.3200   22.8003 O   0  0  0  0  0  0  0  0  0  0  0  0
   10.6222    6.2748   23.2019 O   0  0  0  0  0  0  0  0  0  0  0  0
    9.4577    5.3983   25.2570 O   0  0  0  0  0  0  0  0  0  0  0  0
   10.6670    5.4577   24.4230 S   0  0  0  0  0  0  0  0  0  0  0  0
    4.3538    2.4390   20.4105 H   0  0  0  0  0  0  0  0  0  0  0  0
    7.6683   -5.3342   26.0102 H   0  0  0  0  0  0  0  0  0  0  0  0
    5.7575    2.9880   18.4236 H   0  0  0  0  0  0  0  0  0  0  0  0
    6.2983   -5.2703   23.9552 H   0  0  0  0  0  0  0  0  0  0  0  0
    9.4404   -3.6523   26.3809 H   0  0  0  0  0  0  0  0  0  0  0  0
    4.2469    0.0908   21.2181 H   0  0  0  0  0  0  0  0  0  0  0  0
    8.4772   -1.8082   22.6111 H   0  0  0  0  0  0  0  0  0  0  0  0
   10.3559    2.6306   25.7067 H   0  0  0  0  0  0  0  0  0  0  0  0
    7.0135    1.1325   17.3137 H   0  0  0  0  0  0  0  0  0  0  0  0
   12.3790    4.1032   22.1551 H   0  0  0  0  0  0  0  0  0  0  0  0
   13.9724    1.3808   22.4012 H   0  0  0  0  0  0  0  0  0  0  0  0
   12.5299    0.3850   22.0081 H   0  0  0  0  0  0  0  0  0  0  0  0
   12.8518    1.8757   21.0865 H   0  0  0  0  0  0  0  0  0  0  0  0
    4.5133   -2.3420   20.3533 H   0  0  0  0  0  0  0  0  0  0  0  0
    5.9228   -2.7128   19.3595 H   0  0  0  0  0  0  0  0  0  0  0  0
   12.5363   -0.2375   24.1560 H   0  0  0  0  0  0  0  0  0  0  0  0
   11.5576    0.0780   25.5838 H   0  0  0  0  0  0  0  0  0  0  0  0
   12.5745    6.7620   25.0081 H   0  0  0  0  0  0  0  0  0  0  0  0
   11.7784    6.1610   26.4111 H   0  0  0  0  0  0  0  0  0  0  0  0
   10.5998   -1.7570   25.5993 H   0  0  0  0  0  0  0  0  0  0  0  0
    6.7330   -1.4208   21.7628 H   0  0  0  0  0  0  0  0  0  0  0  0
  1  3  1  0  0  0  0
  1  6  2  0  0  0  0
  2  4  1  0  0  0  0
  2  5  2  0  0  0  0
  3  9  2  0  0  0  0
  4 11  2  0  0  0  0
  5 12  1  0  0  0  0
  6 14  1  0  0  0  0
  7 11  1  0  0  0  0
  7 12  2  0  0  0  0
  8 13  1  0  0  0  0
  8 15  2  0  0  0  0
  9 21  1  0  0  0  0
 10 13  2  0  0  0  0
 10 22  1  0  0  0  0
 11 16  1  0  0  0  0
 12 24  1  0  0  0  0
 13 30  1  0  0  0  0
 14 19  1  0  0  0  0
 14 21  2  0  0  0  0
 15 20  1  0  0  0  0
 15 22  1  0  0  0  0
 16 25  1  0  0  0  0
 16 26  2  0  0  0  0
 17 20  1  0  0  0  0
 17 24  1  0  0  0  0
 17 27  2  0  0  0  0
 18 22  1  0  0  0  0
 19 25  1  0  0  0  0
 23 30  1  0  0  0  0
 28 30  2  0  0  0  0
 29 30  2  0  0  0  0
  1 31  1  0  0  0  0
  2 32  1  0  0  0  0
  3 33  1  0  0  0  0
  4 34  1  0  0  0  0
  5 35  1  0  0  0  0
  6 36  1  0  0  0  0
  7 37  1  0  0  0  0
  8 38  1  0  0  0  0
  9 39  1  0  0  0  0
 10 40  1  0  0  0  0
 18 41  1  0  0  0  0
 18 42  1  0  0  0  0
 18 43  1  0  0  0  0
 19 44  1  0  0  0  0
 19 45  1  0  0  0  0
 20 46  1  0  0  0  0
 20 47  1  0  0  0  0
 23 48  1  0  0  0  0
 23 49  1  0  0  0  0
 24 50  1  0  0  0  0
 25 51  1  0  0  0  0
M  END
> <series>
3-aminopyridine-like

> <r_inhibition_at_20_uM>

> <r_inhibition_at_50_uM>
0.0

> <r_IC50>

> <f_inhibition_at_20_uM>
-21.517416

> <f_inhibition_at_50_uM>
-0.595988693

> <f_avg_IC50>

> <f_avg_pIC50>

> <ASSAYED>
True

> <Hybrid2>
-6.049446

> <docked_fragment>
x0434

> <Mpro-_dock>
-4.809608

> <site>
active-noncovalent

$$$$
LON-WEI-adc59df6-1
  -OEChem-07042000473D

 64 66  0     1  0  0  0  0  0999 V2000
    6.7094    0.0586   20.7295 C   0  0  0  0  0  0  0  0  0  0  0  0
    7.7651   -0.3741   21.5241 C   0  0  0  0  0  0  0  0  0  0  0  0
   10.2015    3.6563   21.9826 C   0  0  0  0  0  0  0  0  0  0  0  0
    8.6527    2.6305   23.5272 C   0  0  0  0  0  0  0  0  0  0  0  0
   10.8141    2.4203   21.7760 C   0  0  0  0  0  0  0  0  0  0  0  0
    9.2653    1.3945   23.3206 C   0  0  0  0  0  0  0  0  0  0  0  0
    6.9399    0.2118   19.3719 C   0  0  0  0  0  0  0  0  0  0  0  0
    9.1295   -0.4524   19.5777 C   0  0  0  0  0  0  0  0  0  0  0  0
    9.1208    3.7614   22.8582 C   0  0  0  0  0  0  0  0  0  0  0  0
    9.0017   -0.6366   20.9450 C   0  0  0  0  0  0  0  0  0  0  0  0
   10.3460    1.2894   22.4450 C   0  0  0  0  0  0  0  0  0  0  0  0
   14.1772   -1.7493   22.0313 C   0  0  0  0  0  0  0  0  0  0  0  0
   12.8977   -1.5506   22.3638 C   0  0  0  0  0  0  0  0  0  0  0  0
   12.3718   -0.1650   22.5391 C   0  0  0  0  0  0  0  0  0  0  0  0
    5.4833   -5.8876   23.3681 C   0  0  0  0  0  0  0  0  0  0  0  0
    9.7073   -1.8876   23.0073 C   0  0  0  0  0  0  0  0  0  0  0  0
    8.0447   -5.3140   23.1053 C   0  0  0  0  0  0  0  0  0  0  0  0
    6.8781   -3.7049   23.8672 C   0  0  0  0  0  0  0  0  0  0  0  0
    6.7460   -5.2481   23.9511 C   0  0  0  0  0  0  0  0  0  0  0  0
    8.3913   -3.9082   23.6403 C   0  0  0  0  0  0  0  0  0  0  0  0
    7.8910    5.6589   21.7479 C   0  0  0  0  0  0  0  0  0  0  0  0
    9.4767    6.1278   23.6457 C   0  0  0  0  0  0  0  0  0  0  0  0
    7.2658    5.0782   24.0832 C   0  0  0  0  0  0  0  0  0  0  0  0
    3.1538   -6.0948   23.7063 C   0  0  0  0  0  0  0  0  0  0  0  0
   10.1684   -1.1087   21.7812 C   0  0  2  0  0  0  0  0  0  0  0  0
    8.4660    5.0830   23.0791 C   0  0  0  0  0  0  0  0  0  0  0  0
    8.1270   -0.0334   18.7733 N   0  0  0  0  0  0  0  0  0  0  0  0
    8.9843   -3.0140   22.6589 N   0  0  0  0  0  0  0  0  0  0  0  0
   10.9897   -0.0103   22.2278 N   0  0  0  0  0  0  0  0  0  0  0  0
   13.1392    0.7173   22.9248 O   0  0  0  0  0  0  0  0  0  0  0  0
    5.4695   -6.5821   22.3609 O   0  0  0  0  0  0  0  0  0  0  0  0
    9.9312   -1.5143   24.1571 O   0  0  0  0  0  0  0  0  0  0  0  0
    4.4083   -5.5600   24.1402 O   0  0  0  0  0  0  0  0  0  0  0  0
    5.7367    0.2690   21.1592 H   0  0  0  0  0  0  0  0  0  0  0  0
    7.6153   -0.5040   22.5925 H   0  0  0  0  0  0  0  0  0  0  0  0
   10.5743    4.5326   21.4588 H   0  0  0  0  0  0  0  0  0  0  0  0
    7.8117    2.7034   24.2118 H   0  0  0  0  0  0  0  0  0  0  0  0
   11.6554    2.3499   21.0910 H   0  0  0  0  0  0  0  0  0  0  0  0
    8.8931    0.5197   23.8480 H   0  0  0  0  0  0  0  0  0  0  0  0
    6.1488    0.5473   18.7093 H   0  0  0  0  0  0  0  0  0  0  0  0
   10.0703   -0.6414   19.0700 H   0  0  0  0  0  0  0  0  0  0  0  0
   14.5488   -2.7577   21.8823 H   0  0  0  0  0  0  0  0  0  0  0  0
   14.8806   -0.9335   21.9061 H   0  0  0  0  0  0  0  0  0  0  0  0
   12.2235   -2.3934   22.4632 H   0  0  0  0  0  0  0  0  0  0  0  0
    8.7450   -6.1059   23.3859 H   0  0  0  0  0  0  0  0  0  0  0  0
    7.8717   -5.3647   22.0233 H   0  0  0  0  0  0  0  0  0  0  0  0
    6.3427   -3.2550   23.0221 H   0  0  0  0  0  0  0  0  0  0  0  0
    6.6116   -3.1632   24.7793 H   0  0  0  0  0  0  0  0  0  0  0  0
    6.9132   -5.6118   24.9756 H   0  0  0  0  0  0  0  0  0  0  0  0
    8.9711   -3.9285   24.5707 H   0  0  0  0  0  0  0  0  0  0  0  0
    7.4035    6.6314   21.8826 H   0  0  0  0  0  0  0  0  0  0  0  0
    8.6773    5.7965   20.9975 H   0  0  0  0  0  0  0  0  0  0  0  0
    7.1501    4.9698   21.3254 H   0  0  0  0  0  0  0  0  0  0  0  0
    8.9993    7.1001   23.8093 H   0  0  0  0  0  0  0  0  0  0  0  0
    9.9122    5.8198   24.6035 H   0  0  0  0  0  0  0  0  0  0  0  0
   10.3005    6.2806   22.9385 H   0  0  0  0  0  0  0  0  0  0  0  0
    6.8184    6.0712   24.2118 H   0  0  0  0  0  0  0  0  0  0  0  0
    6.4695    4.4093   23.7361 H   0  0  0  0  0  0  0  0  0  0  0  0
    7.5884    4.7398   25.0747 H   0  0  0  0  0  0  0  0  0  0  0  0
    2.3641   -5.7740   24.3901 H   0  0  0  0  0  0  0  0  0  0  0  0
    3.2101   -7.1860   23.6839 H   0  0  0  0  0  0  0  0  0  0  0  0
    2.9368   -5.7224   22.7023 H   0  0  0  0  0  0  0  0  0  0  0  0
   10.8345   -1.7452   21.1862 H   0  0  0  0  0  0  0  0  0  0  0  0
    8.8465   -3.2470   21.6841 H   0  0  0  0  0  0  0  0  0  0  0  0
  1  2  2  0  0  0  0
  1  7  1  0  0  0  0
  2 10  1  0  0  0  0
  3  5  2  0  0  0  0
  3  9  1  0  0  0  0
  4  6  1  0  0  0  0
  4  9  2  0  0  0  0
  5 11  1  0  0  0  0
  6 11  2  0  0  0  0
  7 27  2  0  0  0  0
  8 10  2  0  0  0  0
  8 27  1  0  0  0  0
  9 26  1  0  0  0  0
 10 25  1  0  0  0  0
 11 29  1  0  0  0  0
 12 13  2  0  0  0  0
 13 14  1  0  0  0  0
 14 29  1  0  0  0  0
 14 30  2  0  0  0  0
 15 19  1  0  0  0  0
 15 31  2  0  0  0  0
 15 33  1  0  0  0  0
 16 25  1  0  0  0  0
 16 28  1  0  0  0  0
 16 32  2  0  0  0  0
 17 19  1  0  0  0  0
 17 20  1  0  0  0  0
 18 19  1  0  0  0  0
 18 20  1  0  0  0  0
 20 28  1  0  0  0  0
 21 26  1  0  0  0  0
 22 26  1  0  0  0  0
 23 26  1  0  0  0  0
 24 33  1  0  0  0  0
 25 29  1  0  0  0  0
  1 34  1  0  0  0  0
  2 35  1  0  0  0  0
  3 36  1  0  0  0  0
  4 37  1  0  0  0  0
  5 38  1  0  0  0  0
  6 39  1  0  0  0  0
  7 40  1  0  0  0  0
  8 41  1  0  0  0  0
 12 42  1  0  0  0  0
 12 43  1  0  0  0  0
 13 44  1  0  0  0  0
 17 45  1  0  0  0  0
 17 46  1  0  0  0  0
 18 47  1  0  0  0  0
 18 48  1  0  0  0  0
 19 49  1  0  0  0  0
 20 50  1  0  0  0  0
 21 51  1  0  0  0  0
 21 52  1  0  0  0  0
 21 53  1  0  0  0  0
 22 54  1  0  0  0  0
 22 55  1  0  0  0  0
 22 56  1  0  0  0  0
 23 57  1  0  0  0  0
 23 58  1  0  0  0  0
 23 59  1  0  0  0  0
 24 60  1  0  0  0  0
 24 61  1  0  0  0  0
 24 62  1  0  0  0  0
 25 63  1  0  0  0  0
 28 64  1  0  0  0  0
M  END
> <series>
3-aminopyridine-like

> <r_inhibition_at_20_uM>
0.0

> <r_inhibition_at_50_uM>
0.0

> <r_IC50>

> <f_inhibition_at_20_uM>
5.695664

> <f_inhibition_at_50_uM>
4.242857

> <f_avg_IC50>

> <f_avg_pIC50>

> <ASSAYED>
True

> <Hybrid2>
-5.721620

> <docked_fragment>
x0678

> <Mpro-_dock>
-5.045855

> <site>
active-noncovalent

$$$$
AAR-POS-8a4e0f60-9
  -OEChem-07042000473D

 51 53  0     0  0  0  0  0  0999 V2000
    9.1392    1.9296   25.0597 C   0  0  0  0  0  0  0  0  0  0  0  0
    9.2880    3.1164   24.3346 C   0  0  0  0  0  0  0  0  0  0  0  0
   10.1719    0.9833   25.1212 C   0  0  0  0  0  0  0  0  0  0  0  0
    9.9104   -1.9583   22.2950 C   0  0  0  0  0  0  0  0  0  0  0  0
   10.6978   -0.4494   20.5802 C   0  0  0  0  0  0  0  0  0  0  0  0
   11.2242   -2.1674   22.7143 C   0  0  0  0  0  0  0  0  0  0  0  0
   12.0116   -0.6586   20.9995 C   0  0  0  0  0  0  0  0  0  0  0  0
   10.4704    3.4033   23.6446 C   0  0  0  0  0  0  0  0  0  0  0  0
   11.3633    1.2577   24.4338 C   0  0  0  0  0  0  0  0  0  0  0  0
    9.6472   -1.0993   21.2279 C   0  0  0  0  0  0  0  0  0  0  0  0
   12.2748   -1.5176   22.0666 C   0  0  0  0  0  0  0  0  0  0  0  0
   11.4739    2.4425   23.7270 C   0  0  0  0  0  0  0  0  0  0  0  0
   12.6062    0.6298   24.2229 C   0  0  0  0  0  0  0  0  0  0  0  0
   14.0457   -1.4189   23.8183 C   0  0  0  0  0  0  0  0  0  0  0  0
    7.8697   -0.0802   19.7744 C   0  0  0  0  0  0  0  0  0  0  0  0
    6.4088    0.1630   17.3277 C   0  0  0  0  0  0  0  0  0  0  0  0
    4.3696    0.3641   18.7803 C   0  0  0  0  0  0  0  0  0  0  0  0
    6.1910    2.0864   18.9363 C   0  0  0  0  0  0  0  0  0  0  0  0
   14.5372   -2.3966   21.5419 C   0  0  0  0  0  0  0  0  0  0  0  0
   13.0743   -0.7045   24.7522 C   0  0  0  0  0  0  0  0  0  0  0  0
    5.8734    0.6128   18.6863 C   0  0  0  0  0  0  0  0  0  0  0  0
   13.4202    1.3578   23.4526 N   0  0  0  0  0  0  0  0  0  0  0  0
    8.3159   -0.8875   20.8027 N   0  0  0  0  0  0  0  0  0  0  0  0
   13.5890   -1.7266   22.4857 N   0  0  0  0  0  0  0  0  0  0  0  0
   15.1844   -1.6843   24.2130 O   0  0  0  0  0  0  0  0  0  0  0  0
    8.5407    0.6166   19.0230 O   0  0  0  0  0  0  0  0  0  0  0  0
   12.7005    2.5045   23.1401 O   0  0  0  0  0  0  0  0  0  0  0  0
    6.5029   -0.1670   19.7037 O   0  0  0  0  0  0  0  0  0  0  0  0
    8.2067    1.7374   25.5848 H   0  0  0  0  0  0  0  0  0  0  0  0
    8.4685    3.8304   24.3065 H   0  0  0  0  0  0  0  0  0  0  0  0
   10.0426    0.0664   25.6873 H   0  0  0  0  0  0  0  0  0  0  0  0
    9.0998   -2.4701   22.8074 H   0  0  0  0  0  0  0  0  0  0  0  0
   10.5041    0.2223   19.7478 H   0  0  0  0  0  0  0  0  0  0  0  0
   11.4170   -2.8395   23.5468 H   0  0  0  0  0  0  0  0  0  0  0  0
   12.8224   -0.1476   20.4871 H   0  0  0  0  0  0  0  0  0  0  0  0
   10.5948    4.3191   23.0796 H   0  0  0  0  0  0  0  0  0  0  0  0
    7.4880    0.3398   17.2562 H   0  0  0  0  0  0  0  0  0  0  0  0
    6.2183   -0.9006   17.1511 H   0  0  0  0  0  0  0  0  0  0  0  0
    5.9472    0.7367   16.5160 H   0  0  0  0  0  0  0  0  0  0  0  0
    3.9811    0.6854   19.7535 H   0  0  0  0  0  0  0  0  0  0  0  0
    4.1448   -0.7053   18.6961 H   0  0  0  0  0  0  0  0  0  0  0  0
    3.8222    0.8964   17.9957 H   0  0  0  0  0  0  0  0  0  0  0  0
    5.8070    2.4093   19.9108 H   0  0  0  0  0  0  0  0  0  0  0  0
    7.2688    2.2769   18.9092 H   0  0  0  0  0  0  0  0  0  0  0  0
    5.7060    2.7222   18.1868 H   0  0  0  0  0  0  0  0  0  0  0  0
   15.0397   -1.6368   20.9253 H   0  0  0  0  0  0  0  0  0  0  0  0
   15.2889   -2.9590   22.1153 H   0  0  0  0  0  0  0  0  0  0  0  0
   13.9804   -3.0869   20.8914 H   0  0  0  0  0  0  0  0  0  0  0  0
   13.5625   -0.5413   25.7204 H   0  0  0  0  0  0  0  0  0  0  0  0
   12.2001   -1.3448   24.9194 H   0  0  0  0  0  0  0  0  0  0  0  0
    7.5979   -1.3917   21.3173 H   0  0  0  0  0  0  0  0  0  0  0  0
  1  2  1  0  0  0  0
  1  3  2  0  0  0  0
  2  8  2  0  0  0  0
  3  9  1  0  0  0  0
  4  6  2  0  0  0  0
  4 10  1  0  0  0  0
  5  7  1  0  0  0  0
  5 10  2  0  0  0  0
  6 11  1  0  0  0  0
  7 11  2  0  0  0  0
  8 12  1  0  0  0  0
  9 12  2  0  0  0  0
  9 13  1  0  0  0  0
 10 23  1  0  0  0  0
 11 24  1  0  0  0  0
 12 27  1  0  0  0  0
 13 20  1  0  0  0  0
 13 22  2  0  0  0  0
 14 20  1  0  0  0  0
 14 24  1  0  0  0  0
 14 25  2  0  0  0  0
 15 23  1  0  0  0  0
 15 26  2  0  0  0  0
 15 28  1  0  0  0  0
 16 21  1  0  0  0  0
 17 21  1  0  0  0  0
 18 21  1  0  0  0  0
 19 24  1  0  0  0  0
 21 28  1  0  0  0  0
 22 27  1  0  0  0  0
  1 29  1  0  0  0  0
  2 30  1  0  0  0  0
  3 31  1  0  0  0  0
  4 32  1  0  0  0  0
  5 33  1  0  0  0  0
  6 34  1  0  0  0  0
  7 35  1  0  0  0  0
  8 36  1  0  0  0  0
 16 37  1  0  0  0  0
 16 38  1  0  0  0  0
 16 39  1  0  0  0  0
 17 40  1  0  0  0  0
 17 41  1  0  0  0  0
 17 42  1  0  0  0  0
 18 43  1  0  0  0  0
 18 44  1  0  0  0  0
 18 45  1  0  0  0  0
 19 46  1  0  0  0  0
 19 47  1  0  0  0  0
 19 48  1  0  0  0  0
 20 49  1  0  0  0  0
 20 50  1  0  0  0  0
 23 51  1  0  0  0  0
M  END
> <series>
3-aminopyridine-like

> <r_inhibition_at_20_uM>
0.0

> <r_inhibition_at_50_uM>

> <r_IC50>

> <f_inhibition_at_20_uM>
-14.470329999999999

> <f_inhibition_at_50_uM>
-11.94555

> <f_avg_IC50>

> <f_avg_pIC50>

> <ASSAYED>
True

> <Hybrid2>
-5.507625

> <docked_fragment>
x0678

> <Mpro-_dock>
-4.26045

> <site>
active-noncovalent

$$$$
AAR-POS-8a4e0f60-7
  -OEChem-07042000473D

 47 50  0     0  0  0  0  0  0999 V2000
    3.2253    2.3584   19.5839 C   0  0  0  0  0  0  0  0  0  0  0  0
    3.6384    1.8870   20.8338 C   0  0  0  0  0  0  0  0  0  0  0  0
   11.7975    3.1993   25.4076 C   0  0  0  0  0  0  0  0  0  0  0  0
    3.8431    1.9204   18.4052 C   0  0  0  0  0  0  0  0  0  0  0  0
    4.6817    0.9623   20.9542 C   0  0  0  0  0  0  0  0  0  0  0  0
    9.0883   -2.1533   22.4250 C   0  0  0  0  0  0  0  0  0  0  0  0
    7.5813   -1.4415   24.1741 C   0  0  0  0  0  0  0  0  0  0  0  0
   10.1537   -1.5582   23.1007 C   0  0  0  0  0  0  0  0  0  0  0  0
    8.6467   -0.8464   24.8498 C   0  0  0  0  0  0  0  0  0  0  0  0
   11.5111    1.8762   25.7249 C   0  0  0  0  0  0  0  0  0  0  0  0
   11.5592    2.6447   23.1071 C   0  0  0  0  0  0  0  0  0  0  0  0
   11.8240    3.5990   24.0762 C   0  0  0  0  0  0  0  0  0  0  0  0
    4.8902    0.9935   18.5121 C   0  0  0  0  0  0  0  0  0  0  0  0
    5.2782    0.5436   19.7667 C   0  0  0  0  0  0  0  0  0  0  0  0
    7.8021   -2.0949   22.9617 C   0  0  0  0  0  0  0  0  0  0  0  0
    9.9328   -0.9048   24.3131 C   0  0  0  0  0  0  0  0  0  0  0  0
   11.2601    0.9990   24.6821 C   0  0  0  0  0  0  0  0  0  0  0  0
    6.3394   -2.3083   20.9538 C   0  0  0  0  0  0  0  0  0  0  0  0
    6.0397   -3.8441   22.9344 C   0  0  0  0  0  0  0  0  0  0  0  0
    7.0835   -1.0947   20.4149 C   0  0  0  0  0  0  0  0  0  0  0  0
   12.1270    5.0069   23.7044 C   0  0  0  0  0  0  0  0  0  0  0  0
   11.2770    1.3504   23.3768 N   0  0  0  0  0  0  0  0  0  0  0  0
    5.6670    0.3966   17.5547 N   0  0  0  0  0  0  0  0  0  0  0  0
    6.5269   -0.4106   18.1665 N   0  0  0  0  0  0  0  0  0  0  0  0
    6.2951   -0.3228   19.4868 N   0  0  0  0  0  0  0  0  0  0  0  0
    6.6954   -2.7130   22.2599 N   0  0  0  0  0  0  0  0  0  0  0  0
    5.4686   -2.8439   20.2632 O   0  0  0  0  0  0  0  0  0  0  0  0
   10.9723   -0.3240   24.9725 O   0  0  0  0  0  0  0  0  0  0  0  0
   12.3649    5.8216   24.7769 F   0  0  0  0  0  0  0  0  0  0  0  0
   13.2310    5.1410   22.9085 F   0  0  0  0  0  0  0  0  0  0  0  0
   11.1088    5.6031   23.0153 F   0  0  0  0  0  0  0  0  0  0  0  0
    2.4115    3.0767   19.5248 H   0  0  0  0  0  0  0  0  0  0  0  0
    3.1394    2.2458   21.7307 H   0  0  0  0  0  0  0  0  0  0  0  0
   11.9986    3.9114   26.2032 H   0  0  0  0  0  0  0  0  0  0  0  0
    3.5158    2.2917   17.4396 H   0  0  0  0  0  0  0  0  0  0  0  0
    5.0031    0.5959   21.9223 H   0  0  0  0  0  0  0  0  0  0  0  0
    9.2720   -2.6599   21.4809 H   0  0  0  0  0  0  0  0  0  0  0  0
    6.5833   -1.3897   24.6018 H   0  0  0  0  0  0  0  0  0  0  0  0
   11.1533   -1.6070   22.6776 H   0  0  0  0  0  0  0  0  0  0  0  0
    8.4684   -0.3388   25.7939 H   0  0  0  0  0  0  0  0  0  0  0  0
   11.4865    1.5487   26.7585 H   0  0  0  0  0  0  0  0  0  0  0  0
   11.5658    2.8980   22.0515 H   0  0  0  0  0  0  0  0  0  0  0  0
    5.2179   -3.4705   23.5629 H   0  0  0  0  0  0  0  0  0  0  0  0
    5.6386   -4.5377   22.1807 H   0  0  0  0  0  0  0  0  0  0  0  0
    6.7725   -4.3704   23.5638 H   0  0  0  0  0  0  0  0  0  0  0  0
    7.3638   -0.4266   21.2364 H   0  0  0  0  0  0  0  0  0  0  0  0
    7.9857   -1.4131   19.8817 H   0  0  0  0  0  0  0  0  0  0  0  0
  1  2  1  0  0  0  0
  1  4  2  0  0  0  0
  2  5  2  0  0  0  0
  3 10  2  0  0  0  0
  3 12  1  0  0  0  0
  4 13  1  0  0  0  0
  5 14  1  0  0  0  0
  6  8  2  0  0  0  0
  6 15  1  0  0  0  0
  7  9  1  0  0  0  0
  7 15  2  0  0  0  0
  8 16  1  0  0  0  0
  9 16  2  0  0  0  0
 10 17  1  0  0  0  0
 11 12  2  0  0  0  0
 11 22  1  0  0  0  0
 12 21  1  0  0  0  0
 13 14  2  0  0  0  0
 13 23  1  0  0  0  0
 14 25  1  0  0  0  0
 15 26  1  0  0  0  0
 16 28  1  0  0  0  0
 17 22  2  0  0  0  0
 17 28  1  0  0  0  0
 18 20  1  0  0  0  0
 18 26  1  0  0  0  0
 18 27  2  0  0  0  0
 19 26  1  0  0  0  0
 20 25  1  0  0  0  0
 21 29  1  0  0  0  0
 21 30  1  0  0  0  0
 21 31  1  0  0  0  0
 23 24  2  0  0  0  0
 24 25  1  0  0  0  0
  1 32  1  0  0  0  0
  2 33  1  0  0  0  0
  3 34  1  0  0  0  0
  4 35  1  0  0  0  0
  5 36  1  0  0  0  0
  6 37  1  0  0  0  0
  7 38  1  0  0  0  0
  8 39  1  0  0  0  0
  9 40  1  0  0  0  0
 10 41  1  0  0  0  0
 11 42  1  0  0  0  0
 19 43  1  0  0  0  0
 19 44  1  0  0  0  0
 19 45  1  0  0  0  0
 20 46  1  0  0  0  0
 20 47  1  0  0  0  0
M  END
> <series>
3-aminopyridine-like

> <r_inhibition_at_20_uM>

> <r_inhibition_at_50_uM>
19.206494216027004

> <r_IC50>

> <f_inhibition_at_20_uM>
30.19718

> <f_inhibition_at_50_uM>
59.367865

> <f_avg_IC50>
37.832368521171496

> <f_avg_pIC50>
4.422136468554594

> <ASSAYED>
True

> <Hybrid2>
-5.427140

> <docked_fragment>
x0434

> <Mpro-_dock>
-3.685642

> <site>
active-noncovalent

$$$$
MAK-UNK-129dcd6f-12
  -OEChem-07042000473D

 43 45  0     0  0  0  0  0  0999 V2000
    5.0218   -6.7995   25.2177 C   0  0  0  0  0  0  0  0  0  0  0  0
   10.4837   -0.6390   23.4911 C   0  0  0  0  0  0  0  0  0  0  0  0
    9.0652    1.1133   22.6224 C   0  0  0  0  0  0  0  0  0  0  0  0
    5.6433   -5.6538   24.7336 C   0  0  0  0  0  0  0  0  0  0  0  0
    9.4288   -1.5454   23.3853 C   0  0  0  0  0  0  0  0  0  0  0  0
    8.0103    0.2068   22.5165 C   0  0  0  0  0  0  0  0  0  0  0  0
   12.3170    6.3355   24.3103 C   0  0  0  0  0  0  0  0  0  0  0  0
    3.8627   -7.2238   24.5881 C   0  0  0  0  0  0  0  0  0  0  0  0
   13.5201    6.2734   23.6258 C   0  0  0  0  0  0  0  0  0  0  0  0
    3.9324   -5.4830   23.0905 C   0  0  0  0  0  0  0  0  0  0  0  0
   13.0718    4.1582   22.8493 C   0  0  0  0  0  0  0  0  0  0  0  0
   10.3019    0.6904   23.1097 C   0  0  0  0  0  0  0  0  0  0  0  0
   11.4706    5.2346   24.2399 C   0  0  0  0  0  0  0  0  0  0  0  0
    8.1921   -1.1225   22.8980 C   0  0  0  0  0  0  0  0  0  0  0  0
    5.0946   -4.9770   23.6501 C   0  0  0  0  0  0  0  0  0  0  0  0
   11.8478    4.1210   23.4976 C   0  0  0  0  0  0  0  0  0  0  0  0
   11.4016    1.6355   23.2201 C   0  0  0  0  0  0  0  0  0  0  0  0
    6.8732   -3.1738   23.5847 C   0  0  0  0  0  0  0  0  0  0  0  0
   10.1676    5.2742   24.9687 C   0  0  0  0  0  0  0  0  0  0  0  0
    3.3000   -6.5928   23.5332 N   0  0  0  0  0  0  0  0  0  0  0  0
   13.9207    5.2093   22.8945 N   0  0  0  0  0  0  0  0  0  0  0  0
   11.0199    2.9748   23.3948 N   0  0  0  0  0  0  0  0  0  0  0  0
    7.1378   -2.0300   22.7924 N   0  0  0  0  0  0  0  0  0  0  0  0
    5.7040   -3.8084   23.1354 N   0  0  0  0  0  0  0  0  0  0  0  0
   12.5830    1.2736   23.1293 O   0  0  0  0  0  0  0  0  0  0  0  0
    7.5678   -3.5488   24.5239 O   0  0  0  0  0  0  0  0  0  0  0  0
    5.4318   -7.3432   26.0612 H   0  0  0  0  0  0  0  0  0  0  0  0
   11.4429   -0.9789   23.8726 H   0  0  0  0  0  0  0  0  0  0  0  0
    8.9125    2.1468   22.3223 H   0  0  0  0  0  0  0  0  0  0  0  0
    6.5540   -5.2975   25.2078 H   0  0  0  0  0  0  0  0  0  0  0  0
    9.5811   -2.5794   23.6849 H   0  0  0  0  0  0  0  0  0  0  0  0
    7.0508    0.5476   22.1354 H   0  0  0  0  0  0  0  0  0  0  0  0
   12.0526    7.2194   24.8808 H   0  0  0  0  0  0  0  0  0  0  0  0
    3.3396   -8.1115   24.9282 H   0  0  0  0  0  0  0  0  0  0  0  0
   14.2157    7.1058   23.6489 H   0  0  0  0  0  0  0  0  0  0  0  0
    3.4568   -4.9988   22.2428 H   0  0  0  0  0  0  0  0  0  0  0  0
   13.4216    3.3199   22.2541 H   0  0  0  0  0  0  0  0  0  0  0  0
    9.3834    5.6856   24.3227 H   0  0  0  0  0  0  0  0  0  0  0  0
    9.8637    4.2710   25.2921 H   0  0  0  0  0  0  0  0  0  0  0  0
   10.2373    5.8933   25.8718 H   0  0  0  0  0  0  0  0  0  0  0  0
   10.0191    3.1451   23.4555 H   0  0  0  0  0  0  0  0  0  0  0  0
    6.4648   -1.8442   22.0412 H   0  0  0  0  0  0  0  0  0  0  0  0
    5.2326   -3.3808   22.3423 H   0  0  0  0  0  0  0  0  0  0  0  0
  1  4  2  0  0  0  0
  1  8  1  0  0  0  0
  2  5  2  0  0  0  0
  2 12  1  0  0  0  0
  3  6  1  0  0  0  0
  3 12  2  0  0  0  0
  4 15  1  0  0  0  0
  5 14  1  0  0  0  0
  6 14  2  0  0  0  0
  7  9  2  0  0  0  0
  7 13  1  0  0  0  0
  8 20  2  0  0  0  0
  9 21  1  0  0  0  0
 10 15  2  0  0  0  0
 10 20  1  0  0  0  0
 11 16  1  0  0  0  0
 11 21  2  0  0  0  0
 12 17  1  0  0  0  0
 13 16  2  0  0  0  0
 13 19  1  0  0  0  0
 14 23  1  0  0  0  0
 15 24  1  0  0  0  0
 16 22  1  0  0  0  0
 17 22  1  0  0  0  0
 17 25  2  0  0  0  0
 18 23  1  0  0  0  0
 18 24  1  0  0  0  0
 18 26  2  0  0  0  0
  1 27  1  0  0  0  0
  2 28  1  0  0  0  0
  3 29  1  0  0  0  0
  4 30  1  0  0  0  0
  5 31  1  0  0  0  0
  6 32  1  0  0  0  0
  7 33  1  0  0  0  0
  8 34  1  0  0  0  0
  9 35  1  0  0  0  0
 10 36  1  0  0  0  0
 11 37  1  0  0  0  0
 19 38  1  0  0  0  0
 19 39  1  0  0  0  0
 19 40  1  0  0  0  0
 22 41  1  0  0  0  0
 23 42  1  0  0  0  0
 24 43  1  0  0  0  0
M  END
> <series>
3-aminopyridine-like

> <r_inhibition_at_20_uM>
3.0970616523530907

> <r_inhibition_at_50_uM>
0.0

> <r_IC50>

> <f_inhibition_at_20_uM>

> <f_inhibition_at_50_uM>
-23.02358

> <f_avg_IC50>

> <f_avg_pIC50>

> <ASSAYED>
True

> <Hybrid2>
-5.274630

> <docked_fragment>
x0434

> <Mpro-_dock>
-3.335498

> <site>
active-noncovalent

$$$$
MAK-UNK-b1d4dcd7-3
  -OEChem-07042000473D

 52 55  0     0  0  0  0  0  0999 V2000
    7.9369    7.0723   24.0216 C   0  0  0  0  0  0  0  0  0  0  0  0
    9.9697   -1.4813   23.6466 C   0  0  0  0  0  0  0  0  0  0  0  0
   10.9340   -1.2784   21.4407 C   0  0  0  0  0  0  0  0  0  0  0  0
   11.2147   -1.8489   24.1570 C   0  0  0  0  0  0  0  0  0  0  0  0
   12.1790   -1.6459   21.9511 C   0  0  0  0  0  0  0  0  0  0  0  0
    7.0848    5.9435   24.1948 C   0  0  0  0  0  0  0  0  0  0  0  0
   15.9780    0.6743   25.1511 C   0  0  0  0  0  0  0  0  0  0  0  0
   14.7279    0.9333   24.6272 C   0  0  0  0  0  0  0  0  0  0  0  0
   16.3455   -0.6553   25.1894 C   0  0  0  0  0  0  0  0  0  0  0  0
    7.8379    7.6060   22.7556 C   0  0  0  0  0  0  0  0  0  0  0  0
    9.8294   -1.1961   22.2884 C   0  0  0  0  0  0  0  0  0  0  0  0
   12.3193   -1.9312   23.3093 C   0  0  0  0  0  0  0  0  0  0  0  0
    6.3667    5.6577   23.0543 C   0  0  0  0  0  0  0  0  0  0  0  0
   14.3660   -1.2812   24.2638 C   0  0  0  0  0  0  0  0  0  0  0  0
    6.8345   -0.1686   20.2947 C   0  0  0  0  0  0  0  0  0  0  0  0
    8.2616   -0.5108   20.4572 C   0  0  0  0  0  0  0  0  0  0  0  0
    7.4941    2.1606   20.7551 C   0  0  0  0  0  0  0  0  0  0  0  0
    5.1143    1.7196   20.2770 C   0  0  0  0  0  0  0  0  0  0  0  0
    7.1158    3.0009   21.9644 C   0  0  0  0  0  0  0  0  0  0  0  0
    4.7084    2.5719   21.4735 C   0  0  0  0  0  0  0  0  0  0  0  0
    5.3691    4.5598   22.8300 C   0  0  0  0  0  0  0  0  0  0  0  0
   13.8926   -0.0238   24.1726 N   0  0  0  0  0  0  0  0  0  0  0  0
   15.5614   -1.6627   24.7528 N   0  0  0  0  0  0  0  0  0  0  0  0
    6.4645    1.1654   20.4482 N   0  0  0  0  0  0  0  0  0  0  0  0
    8.5654   -0.8229   21.7700 N   0  0  0  0  0  0  0  0  0  0  0  0
    5.7618    3.6248   21.7208 N   0  3  0  0  0  0  0  0  0  0  0  0
    6.0547   -1.0872   20.0365 O   0  0  0  0  0  0  0  0  0  0  0  0
    8.9958   -0.4892   19.4788 O   0  0  0  0  0  0  0  0  0  0  0  0
   13.5342   -2.2899   23.8073 O   0  0  0  0  0  0  0  0  0  0  0  0
    6.7211    6.7475   21.7819 S   0  0  0  0  0  0  0  0  0  0  0  0
    8.5889    7.4735   24.7864 H   0  0  0  0  0  0  0  0  0  0  0  0
    9.1157   -1.4202   24.3164 H   0  0  0  0  0  0  0  0  0  0  0  0
   10.8365   -1.0584   20.3806 H   0  0  0  0  0  0  0  0  0  0  0  0
   11.3177   -2.0698   25.2159 H   0  0  0  0  0  0  0  0  0  0  0  0
   13.0358   -1.7084   21.2858 H   0  0  0  0  0  0  0  0  0  0  0  0
    7.0050    5.3742   25.1122 H   0  0  0  0  0  0  0  0  0  0  0  0
   16.6274    1.4620   25.5087 H   0  0  0  0  0  0  0  0  0  0  0  0
   14.3521    1.9486   24.5565 H   0  0  0  0  0  0  0  0  0  0  0  0
   17.3098   -0.9564   25.5848 H   0  0  0  0  0  0  0  0  0  0  0  0
    8.3682    8.4587   22.3557 H   0  0  0  0  0  0  0  0  0  0  0  0
    7.6083    2.7948   19.8656 H   0  0  0  0  0  0  0  0  0  0  0  0
    8.4640    1.6857   20.9348 H   0  0  0  0  0  0  0  0  0  0  0  0
    4.3909    0.9119   20.1380 H   0  0  0  0  0  0  0  0  0  0  0  0
    5.1204    2.3168   19.3593 H   0  0  0  0  0  0  0  0  0  0  0  0
    7.0501    2.4007   22.8765 H   0  0  0  0  0  0  0  0  0  0  0  0
    7.8296    3.8162   22.1066 H   0  0  0  0  0  0  0  0  0  0  0  0
    3.7645    3.0928   21.2718 H   0  0  0  0  0  0  0  0  0  0  0  0
    4.6056    1.9733   22.3881 H   0  0  0  0  0  0  0  0  0  0  0  0
    5.2460    3.9468   23.7293 H   0  0  0  0  0  0  0  0  0  0  0  0
    4.3867    4.9659   22.5660 H   0  0  0  0  0  0  0  0  0  0  0  0
    7.8133   -0.7871   22.4552 H   0  0  0  0  0  0  0  0  0  0  0  0
    5.8347    4.1964   20.8675 H   0  0  0  0  0  0  0  0  0  0  0  0
  1  6  1  0  0  0  0
  1 10  2  0  0  0  0
  2  4  2  0  0  0  0
  2 11  1  0  0  0  0
  3  5  1  0  0  0  0
  3 11  2  0  0  0  0
  4 12  1  0  0  0  0
  5 12  2  0  0  0  0
  6 13  2  0  0  0  0
  7  8  1  0  0  0  0
  7  9  2  0  0  0  0
  8 22  2  0  0  0  0
  9 23  1  0  0  0  0
 10 30  1  0  0  0  0
 11 25  1  0  0  0  0
 12 29  1  0  0  0  0
 13 21  1  0  0  0  0
 13 30  1  0  0  0  0
 14 22  1  0  0  0  0
 14 23  2  0  0  0  0
 14 29  1  0  0  0  0
 15 16  1  0  0  0  0
 15 24  1  0  0  0  0
 15 27  2  0  0  0  0
 16 25  1  0  0  0  0
 16 28  2  0  0  0  0
 17 19  1  0  0  0  0
 17 24  1  0  0  0  0
 18 20  1  0  0  0  0
 18 24  1  0  0  0  0
 19 26  1  0  0  0  0
 20 26  1  0  0  0  0
 21 26  1  0  0  0  0
  1 31  1  0  0  0  0
  2 32  1  0  0  0  0
  3 33  1  0  0  0  0
  4 34  1  0  0  0  0
  5 35  1  0  0  0  0
  6 36  1  0  0  0  0
  7 37  1  0  0  0  0
  8 38  1  0  0  0  0
  9 39  1  0  0  0  0
 10 40  1  0  0  0  0
 17 41  1  0  0  0  0
 17 42  1  0  0  0  0
 18 43  1  0  0  0  0
 18 44  1  0  0  0  0
 19 45  1  0  0  0  0
 19 46  1  0  0  0  0
 20 47  1  0  0  0  0
 20 48  1  0  0  0  0
 21 49  1  0  0  0  0
 21 50  1  0  0  0  0
 25 51  1  0  0  0  0
 26 52  1  0  0  0  0
M  CHG  1  26   1
M  END
> <series>
3-aminopyridine-like

> <r_inhibition_at_20_uM>
0.0

> <r_inhibition_at_50_uM>

> <r_IC50>

> <f_inhibition_at_20_uM>
-20.9558

> <f_inhibition_at_50_uM>
-13.82419

> <f_avg_IC50>

> <f_avg_pIC50>

> <ASSAYED>
True

> <Hybrid2>
-5.237003

> <docked_fragment>
x0678

> <Mpro-_dock>
-1.111828

> <site>
active-noncovalent

$$$$
LON-WEI-b8d98729-45
  -OEChem-07042000473D

 65 67  0     1  0  0  0  0  0999 V2000
    4.9494    1.1771   17.1958 C   0  0  0  0  0  0  0  0  0  0  0  0
    8.1505   -2.9460   24.6179 C   0  0  0  0  0  0  0  0  0  0  0  0
    5.9940    0.2850   17.4377 C   0  0  0  0  0  0  0  0  0  0  0  0
    4.3747    1.8815   18.2537 C   0  0  0  0  0  0  0  0  0  0  0  0
    7.7587   -1.6240   24.4389 C   0  0  0  0  0  0  0  0  0  0  0  0
   11.8716   -0.1136   25.0390 C   0  0  0  0  0  0  0  0  0  0  0  0
   12.2956    0.7396   22.8187 C   0  0  0  0  0  0  0  0  0  0  0  0
   10.5493    0.3224   24.9540 C   0  0  0  0  0  0  0  0  0  0  0  0
   10.9733    1.1755   22.7338 C   0  0  0  0  0  0  0  0  0  0  0  0
    8.9429   -3.5257   23.6402 C   0  0  0  0  0  0  0  0  0  0  0  0
    8.9575   -1.6015   22.3849 C   0  0  0  0  0  0  0  0  0  0  0  0
   12.7447    0.0950   23.9713 C   0  0  0  0  0  0  0  0  0  0  0  0
    8.1656   -0.9317   23.3037 C   0  0  0  0  0  0  0  0  0  0  0  0
    6.4639    0.0973   18.7375 C   0  0  0  0  0  0  0  0  0  0  0  0
    4.8446    1.6938   19.5536 C   0  0  0  0  0  0  0  0  0  0  0  0
   10.1002    0.9669   23.8014 C   0  0  0  0  0  0  0  0  0  0  0  0
    5.8892    0.8017   19.7955 C   0  0  0  0  0  0  0  0  0  0  0  0
    9.4157    4.8633   24.6398 C   0  0  0  0  0  0  0  0  0  0  0  0
    9.4346    3.5309   24.7468 C   0  0  0  0  0  0  0  0  0  0  0  0
    8.3470    2.7111   24.1364 C   0  0  0  0  0  0  0  0  0  0  0  0
    7.6535    0.8375   21.5933 C   0  0  0  0  0  0  0  0  0  0  0  0
    7.5844   -0.8653   18.9650 C   0  0  0  0  0  0  0  0  0  0  0  0
    3.2491    1.6069   21.4858 C   0  0  0  0  0  0  0  0  0  0  0  0
   15.1739    0.7575   23.8760 C   0  0  0  0  0  0  0  0  0  0  0  0
   13.8966   -2.6228   23.4427 C   0  0  0  0  0  0  0  0  0  0  0  0
    4.2085    2.4634   20.6655 C   0  0  0  0  0  0  0  0  0  0  0  0
    7.7568    0.5075   23.0802 C   0  0  2  0  0  0  0  0  0  0  0  0
   14.1584   -0.3711   24.0623 C   0  0  2  0  0  0  0  0  0  0  0  0
    9.3579   -2.8852   22.5243 N   0  0  0  0  0  0  0  0  0  0  0  0
    6.3656    0.6110   21.1143 N   0  0  0  0  0  0  0  0  0  0  0  0
    8.7232    1.4208   23.7125 N   0  0  0  0  0  0  0  0  0  0  0  0
    7.2218    3.2000   24.0322 O   0  0  0  0  0  0  0  0  0  0  0  0
    8.6223    1.2368   20.9527 O   0  0  0  0  0  0  0  0  0  0  0  0
   14.3928   -1.3553   23.0485 O   0  0  0  0  0  0  0  0  0  0  0  0
    4.5835    1.3236   16.1836 H   0  0  0  0  0  0  0  0  0  0  0  0
    7.8454   -3.5050   25.4951 H   0  0  0  0  0  0  0  0  0  0  0  0
    6.4348   -0.2594   16.6067 H   0  0  0  0  0  0  0  0  0  0  0  0
    3.5616    2.5746   18.0543 H   0  0  0  0  0  0  0  0  0  0  0  0
    7.1372   -1.1416   25.1884 H   0  0  0  0  0  0  0  0  0  0  0  0
   12.2136   -0.6129   25.9417 H   0  0  0  0  0  0  0  0  0  0  0  0
   12.9692    0.9069   21.9824 H   0  0  0  0  0  0  0  0  0  0  0  0
    9.8775    0.1542   25.7920 H   0  0  0  0  0  0  0  0  0  0  0  0
   10.6340    1.6777   21.8312 H   0  0  0  0  0  0  0  0  0  0  0  0
    9.2746   -4.5546   23.7330 H   0  0  0  0  0  0  0  0  0  0  0  0
    9.3056   -1.1128   21.4802 H   0  0  0  0  0  0  0  0  0  0  0  0
   10.2208    5.4532   25.0652 H   0  0  0  0  0  0  0  0  0  0  0  0
    8.6135    5.3971   24.1424 H   0  0  0  0  0  0  0  0  0  0  0  0
   10.2639    3.0354   25.2381 H   0  0  0  0  0  0  0  0  0  0  0  0
    8.5483   -0.3500   18.8865 H   0  0  0  0  0  0  0  0  0  0  0  0
    7.5135   -1.3271   19.9571 H   0  0  0  0  0  0  0  0  0  0  0  0
    7.5612   -1.6795   18.2305 H   0  0  0  0  0  0  0  0  0  0  0  0
    2.4665    1.1756   20.8524 H   0  0  0  0  0  0  0  0  0  0  0  0
    2.7645    2.2069   22.2624 H   0  0  0  0  0  0  0  0  0  0  0  0
    3.7780    0.7820   21.9751 H   0  0  0  0  0  0  0  0  0  0  0  0
   15.0112    1.2819   22.9291 H   0  0  0  0  0  0  0  0  0  0  0  0
   16.2010    0.3758   23.8879 H   0  0  0  0  0  0  0  0  0  0  0  0
   15.1044    1.4836   24.6935 H   0  0  0  0  0  0  0  0  0  0  0  0
   14.0888   -3.3522   22.6520 H   0  0  0  0  0  0  0  0  0  0  0  0
   12.8230   -2.5514   23.6341 H   0  0  0  0  0  0  0  0  0  0  0  0
   14.4075   -2.9361   24.3562 H   0  0  0  0  0  0  0  0  0  0  0  0
    4.9803    2.8805   21.3305 H   0  0  0  0  0  0  0  0  0  0  0  0
    3.6652    3.3331   20.2649 H   0  0  0  0  0  0  0  0  0  0  0  0
    6.7828    0.6996   23.5469 H   0  0  0  0  0  0  0  0  0  0  0  0
   14.3698   -0.8614   25.0279 H   0  0  0  0  0  0  0  0  0  0  0  0
    5.6878    0.2684   21.7919 H   0  0  0  0  0  0  0  0  0  0  0  0
  1  3  1  0  0  0  0
  1  4  2  0  0  0  0
  2  5  2  0  0  0  0
  2 10  1  0  0  0  0
  3 14  2  0  0  0  0
  4 15  1  0  0  0  0
  5 13  1  0  0  0  0
  6  8  2  0  0  0  0
  6 12  1  0  0  0  0
  7  9  1  0  0  0  0
  7 12  2  0  0  0  0
  8 16  1  0  0  0  0
  9 16  2  0  0  0  0
 10 29  2  0  0  0  0
 11 13  2  0  0  0  0
 11 29  1  0  0  0  0
 12 28  1  0  0  0  0
 13 27  1  0  0  0  0
 14 17  1  0  0  0  0
 14 22  1  0  0  0  0
 15 17  2  0  0  0  0
 15 26  1  0  0  0  0
 16 31  1  0  0  0  0
 17 30  1  0  0  0  0
 18 19  2  0  0  0  0
 19 20  1  0  0  0  0
 20 31  1  0  0  0  0
 20 32  2  0  0  0  0
 21 27  1  0  0  0  0
 21 30  1  0  0  0  0
 21 33  2  0  0  0  0
 23 26  1  0  0  0  0
 24 28  1  0  0  0  0
 25 34  1  0  0  0  0
 27 31  1  0  0  0  0
 28 34  1  0  0  0  0
  1 35  1  0  0  0  0
  2 36  1  0  0  0  0
  3 37  1  0  0  0  0
  4 38  1  0  0  0  0
  5 39  1  0  0  0  0
  6 40  1  0  0  0  0
  7 41  1  0  0  0  0
  8 42  1  0  0  0  0
  9 43  1  0  0  0  0
 10 44  1  0  0  0  0
 11 45  1  0  0  0  0
 18 46  1  0  0  0  0
 18 47  1  0  0  0  0
 19 48  1  0  0  0  0
 22 49  1  0  0  0  0
 22 50  1  0  0  0  0
 22 51  1  0  0  0  0
 23 52  1  0  0  0  0
 23 53  1  0  0  0  0
 23 54  1  0  0  0  0
 24 55  1  0  0  0  0
 24 56  1  0  0  0  0
 24 57  1  0  0  0  0
 25 58  1  0  0  0  0
 25 59  1  0  0  0  0
 25 60  1  0  0  0  0
 26 61  1  0  0  0  0
 26 62  1  0  0  0  0
 27 63  1  0  0  0  0
 28 64  1  0  0  0  0
 30 65  1  0  0  0  0
M  END
> <series>
3-aminopyridine-like

> <r_inhibition_at_20_uM>
0.0

> <r_inhibition_at_50_uM>

> <r_IC50>

> <f_inhibition_at_20_uM>
5.9039575

> <f_inhibition_at_50_uM>
3.935542

> <f_avg_IC50>

> <f_avg_pIC50>

> <ASSAYED>
True

> <Hybrid2>
-5.119139

> <docked_fragment>
x0678

> <Mpro-_dock>
-5.066945

> <site>
active-noncovalent

$$$$
MAK-UNK-30aad1f1-12
  -OEChem-07042000473D

 39 41  0     0  0  0  0  0  0999 V2000
   12.4405    6.8284   24.5108 C   0  0  0  0  0  0  0  0  0  0  0  0
    3.5605   -6.4680   23.8042 C   0  0  0  0  0  0  0  0  0  0  0  0
   13.3442    4.5808   24.1339 C   0  0  0  0  0  0  0  0  0  0  0  0
    4.0678   -5.2597   23.3396 C   0  0  0  0  0  0  0  0  0  0  0  0
   10.8084   -0.6722   22.9594 C   0  0  0  0  0  0  0  0  0  0  0  0
    9.3308    1.2235   22.7147 C   0  0  0  0  0  0  0  0  0  0  0  0
    9.7081   -1.5295   22.9620 C   0  0  0  0  0  0  0  0  0  0  0  0
    8.2305    0.3663   22.7173 C   0  0  0  0  0  0  0  0  0  0  0  0
   13.1596    3.2682   23.7139 C   0  0  0  0  0  0  0  0  0  0  0  0
    4.3756   -7.2469   24.6096 C   0  0  0  0  0  0  0  0  0  0  0  0
   11.0644    5.0133   23.6125 C   0  0  0  0  0  0  0  0  0  0  0  0
    6.0913   -5.7227   24.5004 C   0  0  0  0  0  0  0  0  0  0  0  0
   12.2817    5.4763   24.0855 C   0  0  0  0  0  0  0  0  0  0  0  0
   10.6198    0.7043   22.8358 C   0  0  0  0  0  0  0  0  0  0  0  0
    8.4192   -1.0103   22.8409 C   0  0  0  0  0  0  0  0  0  0  0  0
    5.3566   -4.8726   23.6897 C   0  0  0  0  0  0  0  0  0  0  0  0
   11.9030    2.9041   23.2577 C   0  0  0  0  0  0  0  0  0  0  0  0
    7.1739   -3.1182   23.4926 C   0  0  0  0  0  0  0  0  0  0  0  0
   12.5697    7.9286   24.8568 N   0  0  0  0  0  0  0  0  0  0  0  0
    5.6324   -6.9042   24.9710 N   0  0  0  0  0  0  0  0  0  0  0  0
   10.8469    3.7458   23.1959 N   0  0  0  0  0  0  0  0  0  0  0  0
   11.7322    1.5715   22.8351 N   0  0  0  0  0  0  0  0  0  0  0  0
    7.3187   -1.8678   22.8435 N   0  0  0  0  0  0  0  0  0  0  0  0
    5.9003   -3.6490   23.2323 N   0  0  0  0  0  0  0  0  0  0  0  0
    8.0384   -3.6528   24.1797 O   0  0  0  0  0  0  0  0  0  0  0  0
    2.5586   -6.7899   23.5440 H   0  0  0  0  0  0  0  0  0  0  0  0
   14.3209    4.8913   24.4965 H   0  0  0  0  0  0  0  0  0  0  0  0
    3.4509   -4.6279   22.7059 H   0  0  0  0  0  0  0  0  0  0  0  0
   11.8082   -1.0877   23.0554 H   0  0  0  0  0  0  0  0  0  0  0  0
    9.1723    2.2946   22.6180 H   0  0  0  0  0  0  0  0  0  0  0  0
    9.8665   -2.6006   23.0602 H   0  0  0  0  0  0  0  0  0  0  0  0
    7.2300    0.7807   22.6234 H   0  0  0  0  0  0  0  0  0  0  0  0
   13.9830    2.5624   23.7492 H   0  0  0  0  0  0  0  0  0  0  0  0
    4.0269   -8.1985   24.9969 H   0  0  0  0  0  0  0  0  0  0  0  0
   10.1957    5.6627   23.5506 H   0  0  0  0  0  0  0  0  0  0  0  0
    7.1030   -5.4753   24.8078 H   0  0  0  0  0  0  0  0  0  0  0  0
   12.5749    1.1514   22.4542 H   0  0  0  0  0  0  0  0  0  0  0  0
    6.5066   -1.5505   22.3035 H   0  0  0  0  0  0  0  0  0  0  0  0
    5.2885   -3.0905   22.6425 H   0  0  0  0  0  0  0  0  0  0  0  0
  1 13  1  0  0  0  0
  1 19  3  0  0  0  0
  2  4  2  0  0  0  0
  2 10  1  0  0  0  0
  3  9  2  0  0  0  0
  3 13  1  0  0  0  0
  4 16  1  0  0  0  0
  5  7  2  0  0  0  0
  5 14  1  0  0  0  0
  6  8  1  0  0  0  0
  6 14  2  0  0  0  0
  7 15  1  0  0  0  0
  8 15  2  0  0  0  0
  9 17  1  0  0  0  0
 10 20  2  0  0  0  0
 11 13  2  0  0  0  0
 11 21  1  0  0  0  0
 12 16  2  0  0  0  0
 12 20  1  0  0  0  0
 14 22  1  0  0  0  0
 15 23  1  0  0  0  0
 16 24  1  0  0  0  0
 17 21  2  0  0  0  0
 17 22  1  0  0  0  0
 18 23  1  0  0  0  0
 18 24  1  0  0  0  0
 18 25  2  0  0  0  0
  2 26  1  0  0  0  0
  3 27  1  0  0  0  0
  4 28  1  0  0  0  0
  5 29  1  0  0  0  0
  6 30  1  0  0  0  0
  7 31  1  0  0  0  0
  8 32  1  0  0  0  0
  9 33  1  0  0  0  0
 10 34  1  0  0  0  0
 11 35  1  0  0  0  0
 12 36  1  0  0  0  0
 22 37  1  0  0  0  0
 23 38  1  0  0  0  0
 24 39  1  0  0  0  0
M  END
> <series>
3-aminopyridine-like

> <r_inhibition_at_20_uM>
0.0

> <r_inhibition_at_50_uM>
0.0

> <r_IC50>

> <f_inhibition_at_20_uM>
-1.3067280000000001

> <f_inhibition_at_50_uM>
-3.6965660000000002

> <f_avg_IC50>

> <f_avg_pIC50>

> <ASSAYED>
True

> <Hybrid2>
-3.212160

> <docked_fragment>
x0434

> <Mpro-_dock>
-1.890018

> <site>
active-noncovalent

$$$$
