LIG_11
  -OEChem-05252000023D

 51 55  0     0  0  0  0  0  0999 V2000
   70.7286    8.6158    4.2020 C   0  0  0  0  0  0  0  0  0  0  0  0
   71.5209    8.1966    5.2707 C   0  0  0  0  0  0  0  0  0  0  0  0
   70.2886    7.6908    3.2550 C   0  0  0  0  0  0  0  0  0  0  0  0
   66.8456   -3.7627    6.1498 C   0  0  0  0  0  0  0  0  0  0  0  0
   66.9631   -2.7684    5.1738 C   0  0  0  0  0  0  0  0  0  0  0  0
   76.3119    1.3630    1.8532 C   0  0  0  0  0  0  0  0  0  0  0  0
   71.8734    6.8525    5.3924 C   0  0  0  0  0  0  0  0  0  0  0  0
   70.6411    6.3467    3.3767 C   0  0  0  0  0  0  0  0  0  0  0  0
   70.9453    3.5415    4.0895 C   0  0  0  0  0  0  0  0  0  0  0  0
   73.0062    4.1812    5.1759 C   0  0  0  0  0  0  0  0  0  0  0  0
   67.7871   -3.8793    7.1808 C   0  0  0  0  0  0  0  0  0  0  0  0
   68.0226   -1.8544    5.1900 C   0  0  0  0  0  0  0  0  0  0  0  0
   71.2987    2.1976    4.2103 C   0  0  0  0  0  0  0  0  0  0  0  0
   73.3597    2.8373    5.2968 C   0  0  0  0  0  0  0  0  0  0  0  0
   76.1545    1.0031    3.2228 C   0  0  0  0  0  0  0  0  0  0  0  0
   75.1431    1.2101    1.1404 C   0  0  0  0  0  0  0  0  0  0  0  0
   71.4335    5.9275    4.4454 C   0  0  0  0  0  0  0  0  0  0  0  0
   71.7991    4.5333    4.5722 C   0  0  0  0  0  0  0  0  0  0  0  0
   68.8540   -2.9694    7.2084 C   0  0  0  0  0  0  0  0  0  0  0  0
   68.9440   -1.9929    6.2259 C   0  0  0  0  0  0  0  0  0  0  0  0
   72.5059    1.8455    4.8141 C   0  0  0  0  0  0  0  0  0  0  0  0
   74.8712    0.5891    3.5048 C   0  0  0  0  0  0  0  0  0  0  0  0
   71.8889   -0.5569    5.0685 C   0  0  0  0  0  0  0  0  0  0  0  0
   74.3040    0.1327    4.8179 C   0  0  0  0  0  0  0  0  0  0  0  0
   70.6668   -0.1804    5.8942 C   0  0  0  0  0  0  0  0  0  0  0  0
   69.9061   -2.8397    8.0761 N   0  0  0  0  0  0  0  0  0  0  0  0
   70.6505   -1.8167    7.6705 N   0  0  0  0  0  0  0  0  0  0  0  0
   70.0766   -1.3113    6.5661 N   0  0  0  0  0  0  0  0  0  0  0  0
   72.8724    0.4493    4.9391 N   0  0  0  0  0  0  0  0  0  0  0  0
   71.9763   -1.6925    4.5943 O   0  0  0  0  0  0  0  0  0  0  0  0
   73.8628    0.6350    2.1215 S   0  0  0  0  0  0  0  0  0  0  0  0
   70.4529    9.6620    4.1083 H   0  0  0  0  0  0  0  0  0  0  0  0
   71.8621    8.9163    6.0090 H   0  0  0  0  0  0  0  0  0  0  0  0
   69.6705    8.0163    2.4234 H   0  0  0  0  0  0  0  0  0  0  0  0
   66.0104   -4.4573    6.1088 H   0  0  0  0  0  0  0  0  0  0  0  0
   66.2164   -2.7033    4.3861 H   0  0  0  0  0  0  0  0  0  0  0  0
   77.2348    1.7168    1.4126 H   0  0  0  0  0  0  0  0  0  0  0  0
   72.4914    6.5413    6.2313 H   0  0  0  0  0  0  0  0  0  0  0  0
   70.2902    5.6371    2.6312 H   0  0  0  0  0  0  0  0  0  0  0  0
   70.0013    3.8006    3.6158 H   0  0  0  0  0  0  0  0  0  0  0  0
   73.6831    4.9425    5.5562 H   0  0  0  0  0  0  0  0  0  0  0  0
   67.6879   -4.6541    7.9339 H   0  0  0  0  0  0  0  0  0  0  0  0
   68.1150   -1.0832    4.4342 H   0  0  0  0  0  0  0  0  0  0  0  0
   70.6266    1.4332    3.8285 H   0  0  0  0  0  0  0  0  0  0  0  0
   74.3037    2.5741    5.7673 H   0  0  0  0  0  0  0  0  0  0  0  0
   76.9456    1.0489    3.9606 H   0  0  0  0  0  0  0  0  0  0  0  0
   74.9798    1.4083    0.0905 H   0  0  0  0  0  0  0  0  0  0  0  0
   74.4209   -0.9503    4.9334 H   0  0  0  0  0  0  0  0  0  0  0  0
   74.8240    0.6073    5.6567 H   0  0  0  0  0  0  0  0  0  0  0  0
   70.9401    0.5485    6.6647 H   0  0  0  0  0  0  0  0  0  0  0  0
   69.8933    0.2475    5.2473 H   0  0  0  0  0  0  0  0  0  0  0  0
  1  2  2  0  0  0  0
  1  3  1  0  0  0  0
  2  7  1  0  0  0  0
  3  8  2  0  0  0  0
  4  5  1  0  0  0  0
  4 11  2  0  0  0  0
  5 12  2  0  0  0  0
  6 15  1  0  0  0  0
  6 16  2  0  0  0  0
  7 17  2  0  0  0  0
  8 17  1  0  0  0  0
  9 13  1  0  0  0  0
  9 18  2  0  0  0  0
 10 14  2  0  0  0  0
 10 18  1  0  0  0  0
 11 19  1  0  0  0  0
 12 20  1  0  0  0  0
 13 21  2  0  0  0  0
 14 21  1  0  0  0  0
 15 22  2  0  0  0  0
 16 31  1  0  0  0  0
 17 18  1  0  0  0  0
 19 20  2  0  0  0  0
 19 26  1  0  0  0  0
 20 28  1  0  0  0  0
 21 29  1  0  0  0  0
 22 24  1  0  0  0  0
 22 31  1  0  0  0  0
 23 25  1  0  0  0  0
 23 29  1  0  0  0  0
 23 30  2  0  0  0  0
 24 29  1  0  0  0  0
 25 28  1  0  0  0  0
 26 27  2  0  0  0  0
 27 28  1  0  0  0  0
  1 32  1  0  0  0  0
  2 33  1  0  0  0  0
  3 34  1  0  0  0  0
  4 35  1  0  0  0  0
  5 36  1  0  0  0  0
  6 37  1  0  0  0  0
  7 38  1  0  0  0  0
  8 39  1  0  0  0  0
  9 40  1  0  0  0  0
 10 41  1  0  0  0  0
 11 42  1  0  0  0  0
 12 43  1  0  0  0  0
 13 44  1  0  0  0  0
 14 45  1  0  0  0  0
 15 46  1  0  0  0  0
 16 47  1  0  0  0  0
 24 48  1  0  0  0  0
 24 49  1  0  0  0  0
 25 50  1  0  0  0  0
 25 51  1  0  0  0  0
M  END
> <FRED Chemgauss4 score>
-10.493011

$$$$
LIG_14
  -OEChem-05252000023D

 50 54  0     0  0  0  0  0  0999 V2000
   67.0767   -3.8110    6.1852 C   0  0  0  0  0  0  0  0  0  0  0  0
   67.1282   -2.8111    5.2092 C   0  0  0  0  0  0  0  0  0  0  0  0
   75.0569    0.6552    1.1499 C   0  0  0  0  0  0  0  0  0  0  0  0
   70.6870    3.7467    4.1233 C   0  0  0  0  0  0  0  0  0  0  0  0
   72.7018    4.5205    5.2091 C   0  0  0  0  0  0  0  0  0  0  0  0
   68.0242   -3.8654    7.2159 C   0  0  0  0  0  0  0  0  0  0  0  0
   68.1255   -1.8296    5.2250 C   0  0  0  0  0  0  0  0  0  0  0  0
   71.1280    2.4289    4.2441 C   0  0  0  0  0  0  0  0  0  0  0  0
   73.1428    3.2027    5.3299 C   0  0  0  0  0  0  0  0  0  0  0  0
   74.5331    1.2103    2.3531 C   0  0  0  0  0  0  0  0  0  0  0  0
   69.6566    6.4447    4.4838 C   0  0  0  0  0  0  0  0  0  0  0  0
   71.9383    7.1939    4.3537 C   0  0  0  0  0  0  0  0  0  0  0  0
   69.2711    7.7699    4.3611 C   0  0  0  0  0  0  0  0  0  0  0  0
   71.4507    8.4855    4.2366 C   0  0  0  0  0  0  0  0  0  0  0  0
   75.5856   -0.6014    1.3471 C   0  0  0  0  0  0  0  0  0  0  0  0
   71.4740    4.7925    4.6058 C   0  0  0  0  0  0  0  0  0  0  0  0
   71.0175    6.1596    4.4791 C   0  0  0  0  0  0  0  0  0  0  0  0
   69.0290   -2.8874    7.2431 C   0  0  0  0  0  0  0  0  0  0  0  0
   69.0543   -1.9072    6.2605 C   0  0  0  0  0  0  0  0  0  0  0  0
   72.3559    2.1569    4.8474 C   0  0  0  0  0  0  0  0  0  0  0  0
   74.6811    0.3565    3.4241 C   0  0  0  0  0  0  0  0  0  0  0  0
   71.8981   -0.2808    5.1022 C   0  0  0  0  0  0  0  0  0  0  0  0
   74.2626    0.5660    4.8507 C   0  0  0  0  0  0  0  0  0  0  0  0
   70.6542    0.0146    5.9282 C   0  0  0  0  0  0  0  0  0  0  0  0
   70.1361    8.8013    4.2372 N   0  0  0  0  0  0  0  0  0  0  0  0
   70.0706   -2.6888    8.1104 N   0  0  0  0  0  0  0  0  0  0  0  0
   70.7461   -1.6192    7.7046 N   0  0  0  0  0  0  0  0  0  0  0  0
   70.1398   -1.1526    6.6004 N   0  0  0  0  0  0  0  0  0  0  0  0
   72.8134    0.7878    4.9723 N   0  0  0  0  0  0  0  0  0  0  0  0
   72.0598   -1.4082    4.6279 O   0  0  0  0  0  0  0  0  0  0  0  0
   75.4493   -1.1073    2.9774 S   0  0  0  0  0  0  0  0  0  0  0  0
   66.2889   -4.5589    6.1445 H   0  0  0  0  0  0  0  0  0  0  0  0
   66.3786   -2.7953    4.4217 H   0  0  0  0  0  0  0  0  0  0  0  0
   75.0462    1.1514    0.1883 H   0  0  0  0  0  0  0  0  0  0  0  0
   69.7278    3.9432    3.6500 H   0  0  0  0  0  0  0  0  0  0  0  0
   73.3274    5.3245    5.5891 H   0  0  0  0  0  0  0  0  0  0  0  0
   67.9764   -4.6451    7.9691 H   0  0  0  0  0  0  0  0  0  0  0  0
   68.1667   -1.0539    4.4692 H   0  0  0  0  0  0  0  0  0  0  0  0
   70.5074    1.6220    3.8625 H   0  0  0  0  0  0  0  0  0  0  0  0
   74.1023    3.0020    5.8001 H   0  0  0  0  0  0  0  0  0  0  0  0
   74.0704    2.1866    2.4239 H   0  0  0  0  0  0  0  0  0  0  0  0
   68.9081    5.6648    4.5808 H   0  0  0  0  0  0  0  0  0  0  0  0
   73.0078    7.0096    4.3455 H   0  0  0  0  0  0  0  0  0  0  0  0
   68.2214    8.0450    4.3611 H   0  0  0  0  0  0  0  0  0  0  0  0
   72.1276    9.3273    4.1352 H   0  0  0  0  0  0  0  0  0  0  0  0
   76.0457   -1.2465    0.6119 H   0  0  0  0  0  0  0  0  0  0  0  0
   74.5229   -0.3055    5.4613 H   0  0  0  0  0  0  0  0  0  0  0  0
   74.7716    1.4322    5.2864 H   0  0  0  0  0  0  0  0  0  0  0  0
   70.8793    0.7599    6.6986 H   0  0  0  0  0  0  0  0  0  0  0  0
   69.8541    0.3907    5.2816 H   0  0  0  0  0  0  0  0  0  0  0  0
  1  2  1  0  0  0  0
  1  6  2  0  0  0  0
  2  7  2  0  0  0  0
  3 10  1  0  0  0  0
  3 15  2  0  0  0  0
  4  8  1  0  0  0  0
  4 16  2  0  0  0  0
  5  9  2  0  0  0  0
  5 16  1  0  0  0  0
  6 18  1  0  0  0  0
  7 19  1  0  0  0  0
  8 20  2  0  0  0  0
  9 20  1  0  0  0  0
 10 21  2  0  0  0  0
 11 13  1  0  0  0  0
 11 17  2  0  0  0  0
 12 14  2  0  0  0  0
 12 17  1  0  0  0  0
 13 25  2  0  0  0  0
 14 25  1  0  0  0  0
 15 31  1  0  0  0  0
 16 17  1  0  0  0  0
 18 19  2  0  0  0  0
 18 26  1  0  0  0  0
 19 28  1  0  0  0  0
 20 29  1  0  0  0  0
 21 23  1  0  0  0  0
 21 31  1  0  0  0  0
 22 24  1  0  0  0  0
 22 29  1  0  0  0  0
 22 30  2  0  0  0  0
 23 29  1  0  0  0  0
 24 28  1  0  0  0  0
 26 27  2  0  0  0  0
 27 28  1  0  0  0  0
  1 32  1  0  0  0  0
  2 33  1  0  0  0  0
  3 34  1  0  0  0  0
  4 35  1  0  0  0  0
  5 36  1  0  0  0  0
  6 37  1  0  0  0  0
  7 38  1  0  0  0  0
  8 39  1  0  0  0  0
  9 40  1  0  0  0  0
 10 41  1  0  0  0  0
 11 42  1  0  0  0  0
 12 43  1  0  0  0  0
 13 44  1  0  0  0  0
 14 45  1  0  0  0  0
 15 46  1  0  0  0  0
 23 47  1  0  0  0  0
 23 48  1  0  0  0  0
 24 49  1  0  0  0  0
 24 50  1  0  0  0  0
M  END
> <FRED Chemgauss4 score>
-10.514074

$$$$
LIG_09
  -OEChem-05252000023D

 46 49  0     0  0  0  0  0  0999 V2000
   67.2918   -3.7719    5.9934 C   0  0  0  0  0  0  0  0  0  0  0  0
   67.4529   -2.8424    4.9614 C   0  0  0  0  0  0  0  0  0  0  0  0
   76.2482   -0.4490    2.3575 C   0  0  0  0  0  0  0  0  0  0  0  0
   68.0726   -3.7061    7.1548 C   0  0  0  0  0  0  0  0  0  0  0  0
   68.3976   -1.8138    5.0494 C   0  0  0  0  0  0  0  0  0  0  0  0
   70.8812    3.7918    3.9136 C   0  0  0  0  0  0  0  0  0  0  0  0
   72.6761    4.7386    5.2246 C   0  0  0  0  0  0  0  0  0  0  0  0
   71.3486    2.5091    4.1999 C   0  0  0  0  0  0  0  0  0  0  0  0
   73.1435    3.4559    5.5110 C   0  0  0  0  0  0  0  0  0  0  0  0
   75.8074   -0.5351    3.7096 C   0  0  0  0  0  0  0  0  0  0  0  0
   75.8230    0.7106    1.7474 C   0  0  0  0  0  0  0  0  0  0  0  0
   69.0232   -2.6798    7.2556 C   0  0  0  0  0  0  0  0  0  0  0  0
   69.1602   -1.7716    6.2147 C   0  0  0  0  0  0  0  0  0  0  0  0
   71.5450    4.9065    4.4259 C   0  0  0  0  0  0  0  0  0  0  0  0
   72.4797    2.3412    4.9986 C   0  0  0  0  0  0  0  0  0  0  0  0
   75.0622    0.5623    4.0817 C   0  0  0  0  0  0  0  0  0  0  0  0
   72.0826   -0.0921    5.3705 C   0  0  0  0  0  0  0  0  0  0  0  0
   71.9346    7.3426    4.0527 C   0  0  0  0  0  0  0  0  0  0  0  0
   74.4235    0.8513    5.4094 C   0  0  0  0  0  0  0  0  0  0  0  0
   70.7170    0.1989    5.9766 C   0  0  0  0  0  0  0  0  0  0  0  0
   69.9121   -2.3688    8.2504 N   0  0  0  0  0  0  0  0  0  0  0  0
   70.5999   -1.2983    7.8681 N   0  0  0  0  0  0  0  0  0  0  0  0
   70.1514   -0.9419    6.6530 N   0  0  0  0  0  0  0  0  0  0  0  0
   71.0736    6.2036    4.1349 N   0  0  0  0  0  0  0  0  0  0  0  0
   72.9652    1.0088    5.2961 N   0  0  0  0  0  0  0  0  0  0  0  0
   72.3578   -1.2408    5.0146 O   0  0  0  0  0  0  0  0  0  0  0  0
   74.8963    1.6896    2.8034 S   0  0  0  0  0  0  0  0  0  0  0  0
   66.5487   -4.5591    5.8938 H   0  0  0  0  0  0  0  0  0  0  0  0
   66.8320   -2.9197    4.0721 H   0  0  0  0  0  0  0  0  0  0  0  0
   76.8474   -1.1985    1.8572 H   0  0  0  0  0  0  0  0  0  0  0  0
   67.9406   -4.4318    7.9506 H   0  0  0  0  0  0  0  0  0  0  0  0
   68.5237   -1.0926    4.2504 H   0  0  0  0  0  0  0  0  0  0  0  0
   69.9995    3.9108    3.2892 H   0  0  0  0  0  0  0  0  0  0  0  0
   73.2012    5.6002    5.6290 H   0  0  0  0  0  0  0  0  0  0  0  0
   70.8244    1.6473    3.7944 H   0  0  0  0  0  0  0  0  0  0  0  0
   74.0264    3.3356    6.1336 H   0  0  0  0  0  0  0  0  0  0  0  0
   76.0298   -1.3617    4.3725 H   0  0  0  0  0  0  0  0  0  0  0  0
   76.0119    1.0295    0.7321 H   0  0  0  0  0  0  0  0  0  0  0  0
   72.9723    7.0332    4.2464 H   0  0  0  0  0  0  0  0  0  0  0  0
   71.8651    7.7829    3.0471 H   0  0  0  0  0  0  0  0  0  0  0  0
   71.6286    8.0881    4.8014 H   0  0  0  0  0  0  0  0  0  0  0  0
   74.6210    0.0393    6.1177 H   0  0  0  0  0  0  0  0  0  0  0  0
   74.8265    1.7704    5.8476 H   0  0  0  0  0  0  0  0  0  0  0  0
   70.7932    1.0072    6.7118 H   0  0  0  0  0  0  0  0  0  0  0  0
   70.0108    0.4881    5.1908 H   0  0  0  0  0  0  0  0  0  0  0  0
   70.0878    6.3056    3.9843 H   0  0  0  0  0  0  0  0  0  0  0  0
  1  2  1  0  0  0  0
  1  4  2  0  0  0  0
  2  5  2  0  0  0  0
  3 10  1  0  0  0  0
  3 11  2  0  0  0  0
  4 12  1  0  0  0  0
  5 13  1  0  0  0  0
  6  8  1  0  0  0  0
  6 14  2  0  0  0  0
  7  9  2  0  0  0  0
  7 14  1  0  0  0  0
  8 15  2  0  0  0  0
  9 15  1  0  0  0  0
 10 16  2  0  0  0  0
 11 27  1  0  0  0  0
 12 13  2  0  0  0  0
 12 21  1  0  0  0  0
 13 23  1  0  0  0  0
 14 24  1  0  0  0  0
 15 25  1  0  0  0  0
 16 19  1  0  0  0  0
 16 27  1  0  0  0  0
 17 20  1  0  0  0  0
 17 25  1  0  0  0  0
 17 26  2  0  0  0  0
 18 24  1  0  0  0  0
 19 25  1  0  0  0  0
 20 23  1  0  0  0  0
 21 22  2  0  0  0  0
 22 23  1  0  0  0  0
  1 28  1  0  0  0  0
  2 29  1  0  0  0  0
  3 30  1  0  0  0  0
  4 31  1  0  0  0  0
  5 32  1  0  0  0  0
  6 33  1  0  0  0  0
  7 34  1  0  0  0  0
  8 35  1  0  0  0  0
  9 36  1  0  0  0  0
 10 37  1  0  0  0  0
 11 38  1  0  0  0  0
 18 39  1  0  0  0  0
 18 40  1  0  0  0  0
 18 41  1  0  0  0  0
 19 42  1  0  0  0  0
 19 43  1  0  0  0  0
 20 44  1  0  0  0  0
 20 45  1  0  0  0  0
 24 46  1  0  0  0  0
M  END
> <FRED Chemgauss4 score>
-10.109482

$$$$
LIG_15
  -OEChem-05252000023D

 53 57  0     0  0  0  0  0  0999 V2000
   67.1791   -3.2043    5.5731 C   0  0  0  0  0  0  0  0  0  0  0  0
   67.4408   -2.2122    4.6232 C   0  0  0  0  0  0  0  0  0  0  0  0
   73.5981   -1.6431    0.5679 C   0  0  0  0  0  0  0  0  0  0  0  0
   72.0785    3.9831    2.9958 C   0  0  0  0  0  0  0  0  0  0  0  0
   72.0215    4.0512    5.4101 C   0  0  0  0  0  0  0  0  0  0  0  0
   68.0249   -3.3930    6.6740 C   0  0  0  0  0  0  0  0  0  0  0  0
   68.5545   -1.3725    4.7360 C   0  0  0  0  0  0  0  0  0  0  0  0
   72.5502    2.6713    3.0439 C   0  0  0  0  0  0  0  0  0  0  0  0
   72.4931    2.7394    5.4583 C   0  0  0  0  0  0  0  0  0  0  0  0
   73.5001   -0.4916    1.4014 C   0  0  0  0  0  0  0  0  0  0  0  0
   71.6526    6.8953    3.1011 C   0  0  0  0  0  0  0  0  0  0  0  0
   70.5039    6.5562    5.1066 C   0  0  0  0  0  0  0  0  0  0  0  0
   74.4910   -2.5669    1.0647 C   0  0  0  0  0  0  0  0  0  0  0  0
   71.8142    4.6731    4.1789 C   0  0  0  0  0  0  0  0  0  0  0  0
   71.3265    6.0344    4.1292 C   0  0  0  0  0  0  0  0  0  0  0  0
   69.1448   -2.5579    6.7986 C   0  0  0  0  0  0  0  0  0  0  0  0
   69.3785   -1.5818    5.8398 C   0  0  0  0  0  0  0  0  0  0  0  0
   72.7574    2.0494    4.2752 C   0  0  0  0  0  0  0  0  0  0  0  0
   74.3217   -0.5794    2.5037 C   0  0  0  0  0  0  0  0  0  0  0  0
   70.4192    8.5599    4.0365 C   0  0  0  0  0  0  0  0  0  0  0  0
   72.4963   -0.3395    4.9397 C   0  0  0  0  0  0  0  0  0  0  0  0
   69.1142   10.2655    5.0581 C   0  0  0  0  0  0  0  0  0  0  0  0
   74.5064    0.4156    3.6128 C   0  0  0  0  0  0  0  0  0  0  0  0
   71.2400    0.1122    5.6707 C   0  0  0  0  0  0  0  0  0  0  0  0
   71.2150    8.1691    3.0228 N   0  0  0  0  0  0  0  0  0  0  0  0
   70.0301    7.8194    5.0919 N   0  0  0  0  0  0  0  0  0  0  0  0
   70.1302   -2.5071    7.7488 N   0  0  0  0  0  0  0  0  0  0  0  0
   70.9716   -1.5337    7.4177 N   0  0  0  0  0  0  0  0  0  0  0  0
   70.5233   -0.9815    6.2782 N   0  0  0  0  0  0  0  0  0  0  0  0
   73.2476    0.6868    4.3244 N   0  0  0  0  0  0  0  0  0  0  0  0
   72.8070   -1.5335    4.9450 O   0  0  0  0  0  0  0  0  0  0  0  0
   69.9535    9.8534    3.9891 O   0  0  0  0  0  0  0  0  0  0  0  0
   75.2065   -2.0452    2.5304 S   0  0  0  0  0  0  0  0  0  0  0  0
   66.3052   -3.8401    5.4564 H   0  0  0  0  0  0  0  0  0  0  0  0
   66.7657   -2.0901    3.7796 H   0  0  0  0  0  0  0  0  0  0  0  0
   73.0418   -1.7875   -0.3490 H   0  0  0  0  0  0  0  0  0  0  0  0
   71.9225    4.4549    2.0284 H   0  0  0  0  0  0  0  0  0  0  0  0
   71.8213    4.5759    6.3412 H   0  0  0  0  0  0  0  0  0  0  0  0
   67.8140   -4.1655    7.4062 H   0  0  0  0  0  0  0  0  0  0  0  0
   68.7587   -0.6031    4.0005 H   0  0  0  0  0  0  0  0  0  0  0  0
   72.7549    2.1440    2.1156 H   0  0  0  0  0  0  0  0  0  0  0  0
   72.6530    2.2649    6.4233 H   0  0  0  0  0  0  0  0  0  0  0  0
   72.8566    0.3552    1.1989 H   0  0  0  0  0  0  0  0  0  0  0  0
   72.2934    6.5861    2.2807 H   0  0  0  0  0  0  0  0  0  0  0  0
   70.1858    5.9639    5.9592 H   0  0  0  0  0  0  0  0  0  0  0  0
   74.7576   -3.5231    0.6370 H   0  0  0  0  0  0  0  0  0  0  0  0
   68.8129   11.3048    4.9060 H   0  0  0  0  0  0  0  0  0  0  0  0
   69.6522   10.1657    6.0042 H   0  0  0  0  0  0  0  0  0  0  0  0
   68.2257    9.6300    5.0778 H   0  0  0  0  0  0  0  0  0  0  0  0
   75.2347    0.0480    4.3440 H   0  0  0  0  0  0  0  0  0  0  0  0
   74.8849    1.3681    3.2273 H   0  0  0  0  0  0  0  0  0  0  0  0
   71.4988    0.8146    6.4704 H   0  0  0  0  0  0  0  0  0  0  0  0
   70.5513    0.5970    4.9704 H   0  0  0  0  0  0  0  0  0  0  0  0
  1  2  1  0  0  0  0
  1  6  2  0  0  0  0
  2  7  2  0  0  0  0
  3 10  1  0  0  0  0
  3 13  2  0  0  0  0
  4  8  1  0  0  0  0
  4 14  2  0  0  0  0
  5  9  2  0  0  0  0
  5 14  1  0  0  0  0
  6 16  1  0  0  0  0
  7 17  1  0  0  0  0
  8 18  2  0  0  0  0
  9 18  1  0  0  0  0
 10 19  2  0  0  0  0
 11 15  2  0  0  0  0
 11 25  1  0  0  0  0
 12 15  1  0  0  0  0
 12 26  2  0  0  0  0
 13 33  1  0  0  0  0
 14 15  1  0  0  0  0
 16 17  2  0  0  0  0
 16 27  1  0  0  0  0
 17 29  1  0  0  0  0
 18 30  1  0  0  0  0
 19 23  1  0  0  0  0
 19 33  1  0  0  0  0
 20 25  2  0  0  0  0
 20 26  1  0  0  0  0
 20 32  1  0  0  0  0
 21 24  1  0  0  0  0
 21 30  1  0  0  0  0
 21 31  2  0  0  0  0
 22 32  1  0  0  0  0
 23 30  1  0  0  0  0
 24 29  1  0  0  0  0
 27 28  2  0  0  0  0
 28 29  1  0  0  0  0
  1 34  1  0  0  0  0
  2 35  1  0  0  0  0
  3 36  1  0  0  0  0
  4 37  1  0  0  0  0
  5 38  1  0  0  0  0
  6 39  1  0  0  0  0
  7 40  1  0  0  0  0
  8 41  1  0  0  0  0
  9 42  1  0  0  0  0
 10 43  1  0  0  0  0
 11 44  1  0  0  0  0
 12 45  1  0  0  0  0
 13 46  1  0  0  0  0
 22 47  1  0  0  0  0
 22 48  1  0  0  0  0
 22 49  1  0  0  0  0
 23 50  1  0  0  0  0
 23 51  1  0  0  0  0
 24 52  1  0  0  0  0
 24 53  1  0  0  0  0
M  END
> <FRED Chemgauss4 score>
-10.003744

$$$$
LIG_12
  -OEChem-05252000023D

 50 54  0     0  0  0  0  0  0999 V2000
   66.9257   -3.9515    6.2495 C   0  0  0  0  0  0  0  0  0  0  0  0
   67.0083   -3.0258    5.2048 C   0  0  0  0  0  0  0  0  0  0  0  0
   69.8914    7.7777    2.5356 C   0  0  0  0  0  0  0  0  0  0  0  0
   75.2651    2.3136    1.9407 C   0  0  0  0  0  0  0  0  0  0  0  0
   70.3761    6.4937    2.7588 C   0  0  0  0  0  0  0  0  0  0  0  0
   70.7962    3.6749    3.4314 C   0  0  0  0  0  0  0  0  0  0  0  0
   71.8133    4.4659    5.4751 C   0  0  0  0  0  0  0  0  0  0  0  0
   67.7940   -3.8836    7.3469 C   0  0  0  0  0  0  0  0  0  0  0  0
   67.9590   -1.9991    5.2160 C   0  0  0  0  0  0  0  0  0  0  0  0
   71.2818    2.3924    3.6860 C   0  0  0  0  0  0  0  0  0  0  0  0
   72.2989    3.1834    5.7298 C   0  0  0  0  0  0  0  0  0  0  0  0
   74.5600    2.3039    3.1788 C   0  0  0  0  0  0  0  0  0  0  0  0
   69.6075    8.5648    3.6400 C   0  0  0  0  0  0  0  0  0  0  0  0
   70.2460    6.9074    5.0972 C   0  0  0  0  0  0  0  0  0  0  0  0
   75.8291    1.0893    1.6568 C   0  0  0  0  0  0  0  0  0  0  0  0
   71.0620    4.7117    4.3259 C   0  0  0  0  0  0  0  0  0  0  0  0
   70.5596    6.0426    4.0612 C   0  0  0  0  0  0  0  0  0  0  0  0
   68.7516   -2.8591    7.3702 C   0  0  0  0  0  0  0  0  0  0  0  0
   68.8095   -1.9547    6.3187 C   0  0  0  0  0  0  0  0  0  0  0  0
   72.0332    2.1466    4.8352 C   0  0  0  0  0  0  0  0  0  0  0  0
   74.6117    1.0722    3.7940 C   0  0  0  0  0  0  0  0  0  0  0  0
   71.6612   -0.2845    5.2452 C   0  0  0  0  0  0  0  0  0  0  0  0
   74.0000    0.6537    5.0996 C   0  0  0  0  0  0  0  0  0  0  0  0
   70.3471    0.0115    5.9540 C   0  0  0  0  0  0  0  0  0  0  0  0
   69.7729    8.1614    4.9196 N   0  0  0  0  0  0  0  0  0  0  0  0
   69.7154   -2.5468    8.2922 N   0  0  0  0  0  0  0  0  0  0  0  0
   70.3737   -1.4791    7.8541 N   0  0  0  0  0  0  0  0  0  0  0  0
   69.8333   -1.1257    6.6762 N   0  0  0  0  0  0  0  0  0  0  0  0
   72.5376    0.8141    5.0989 N   0  0  0  0  0  0  0  0  0  0  0  0
   71.9058   -1.4351    4.8730 O   0  0  0  0  0  0  0  0  0  0  0  0
   75.5078   -0.0653    2.8800 S   0  0  0  0  0  0  0  0  0  0  0  0
   66.1755   -4.7374    6.2104 H   0  0  0  0  0  0  0  0  0  0  0  0
   66.3203   -3.1047    4.3666 H   0  0  0  0  0  0  0  0  0  0  0  0
   69.7410    8.1515    1.5294 H   0  0  0  0  0  0  0  0  0  0  0  0
   75.3539    3.1740    1.2905 H   0  0  0  0  0  0  0  0  0  0  0  0
   70.6064    5.8562    1.9088 H   0  0  0  0  0  0  0  0  0  0  0  0
   70.2125    3.8515    2.5309 H   0  0  0  0  0  0  0  0  0  0  0  0
   72.0300    5.2635    6.1816 H   0  0  0  0  0  0  0  0  0  0  0  0
   67.7225   -4.6063    8.1530 H   0  0  0  0  0  0  0  0  0  0  0  0
   68.0244   -1.2808    4.4071 H   0  0  0  0  0  0  0  0  0  0  0  0
   71.0705    1.5926    2.9807 H   0  0  0  0  0  0  0  0  0  0  0  0
   72.8851    3.0032    6.6275 H   0  0  0  0  0  0  0  0  0  0  0  0
   74.0412    3.1595    3.5923 H   0  0  0  0  0  0  0  0  0  0  0  0
   69.2266    9.5739    3.5194 H   0  0  0  0  0  0  0  0  0  0  0  0
   70.3677    6.6163    6.1367 H   0  0  0  0  0  0  0  0  0  0  0  0
   76.4146    0.8177    0.7899 H   0  0  0  0  0  0  0  0  0  0  0  0
   74.2238   -0.3975    5.3115 H   0  0  0  0  0  0  0  0  0  0  0  0
   74.4012    1.2453    5.9292 H   0  0  0  0  0  0  0  0  0  0  0  0
   70.4815    0.8221    6.6783 H   0  0  0  0  0  0  0  0  0  0  0  0
   69.5828    0.2997    5.2241 H   0  0  0  0  0  0  0  0  0  0  0  0
  1  2  1  0  0  0  0
  1  8  2  0  0  0  0
  2  9  2  0  0  0  0
  3  5  2  0  0  0  0
  3 13  1  0  0  0  0
  4 12  1  0  0  0  0
  4 15  2  0  0  0  0
  5 17  1  0  0  0  0
  6 10  1  0  0  0  0
  6 16  2  0  0  0  0
  7 11  2  0  0  0  0
  7 16  1  0  0  0  0
  8 18  1  0  0  0  0
  9 19  1  0  0  0  0
 10 20  2  0  0  0  0
 11 20  1  0  0  0  0
 12 21  2  0  0  0  0
 13 25  2  0  0  0  0
 14 17  2  0  0  0  0
 14 25  1  0  0  0  0
 15 31  1  0  0  0  0
 16 17  1  0  0  0  0
 18 19  2  0  0  0  0
 18 26  1  0  0  0  0
 19 28  1  0  0  0  0
 20 29  1  0  0  0  0
 21 23  1  0  0  0  0
 21 31  1  0  0  0  0
 22 24  1  0  0  0  0
 22 29  1  0  0  0  0
 22 30  2  0  0  0  0
 23 29  1  0  0  0  0
 24 28  1  0  0  0  0
 26 27  2  0  0  0  0
 27 28  1  0  0  0  0
  1 32  1  0  0  0  0
  2 33  1  0  0  0  0
  3 34  1  0  0  0  0
  4 35  1  0  0  0  0
  5 36  1  0  0  0  0
  6 37  1  0  0  0  0
  7 38  1  0  0  0  0
  8 39  1  0  0  0  0
  9 40  1  0  0  0  0
 10 41  1  0  0  0  0
 11 42  1  0  0  0  0
 12 43  1  0  0  0  0
 13 44  1  0  0  0  0
 14 45  1  0  0  0  0
 15 46  1  0  0  0  0
 23 47  1  0  0  0  0
 23 48  1  0  0  0  0
 24 49  1  0  0  0  0
 24 50  1  0  0  0  0
M  END
> <FRED Chemgauss4 score>
-11.448164

$$$$
LIG_03
  -OEChem-05252000023D

 57 60  0     0  0  0  0  0  0999 V2000
   67.2871   -3.8617    6.1486 C   0  0  0  0  0  0  0  0  0  0  0  0
   67.4409   -3.0304    5.0350 C   0  0  0  0  0  0  0  0  0  0  0  0
   76.1434   -1.2483    2.1028 C   0  0  0  0  0  0  0  0  0  0  0  0
   68.0845   -3.6984    7.2890 C   0  0  0  0  0  0  0  0  0  0  0  0
   68.3944   -2.0064    5.0175 C   0  0  0  0  0  0  0  0  0  0  0  0
   71.6045    3.5415    2.9118 C   0  0  0  0  0  0  0  0  0  0  0  0
   72.5574    4.4547    4.9354 C   0  0  0  0  0  0  0  0  0  0  0  0
   71.9896    2.2608    3.3083 C   0  0  0  0  0  0  0  0  0  0  0  0
   72.9426    3.1740    5.3320 C   0  0  0  0  0  0  0  0  0  0  0  0
   75.7176   -1.1671    3.4600 C   0  0  0  0  0  0  0  0  0  0  0  0
   75.8260   -0.1118    1.3920 C   0  0  0  0  0  0  0  0  0  0  0  0
   69.0441   -2.6756    7.2842 C   0  0  0  0  0  0  0  0  0  0  0  0
   69.1735   -1.8661    6.1640 C   0  0  0  0  0  0  0  0  0  0  0  0
   71.8884    4.6384    3.7253 C   0  0  0  0  0  0  0  0  0  0  0  0
   72.6586    2.0771    4.5184 C   0  0  0  0  0  0  0  0  0  0  0  0
   75.0910    0.0286    3.7350 C   0  0  0  0  0  0  0  0  0  0  0  0
   72.1053   -0.2782    5.1210 C   0  0  0  0  0  0  0  0  0  0  0  0
   71.1571    7.0157    4.1358 C   0  0  0  0  0  0  0  0  0  0  0  0
   69.5715    7.9846    2.4317 C   0  0  0  0  0  0  0  0  0  0  0  0
   71.9560    8.7210    2.4451 C   0  0  0  0  0  0  0  0  0  0  0  0
   70.3958    9.4238    4.2962 C   0  0  0  0  0  0  0  0  0  0  0  0
   74.5052    0.4991    5.0349 C   0  0  0  0  0  0  0  0  0  0  0  0
   70.7505    0.0781    5.7163 C   0  0  0  0  0  0  0  0  0  0  0  0
   70.7811    8.2877    3.3360 C   0  0  0  0  0  0  0  0  0  0  0  0
   69.9491   -2.2841    8.2351 N   0  0  0  0  0  0  0  0  0  0  0  0
   70.6396   -1.2585    7.7488 N   0  0  0  0  0  0  0  0  0  0  0  0
   70.1769   -1.0090    6.5126 N   0  0  0  0  0  0  0  0  0  0  0  0
   71.4978    5.9388    3.3227 N   0  0  0  0  0  0  0  0  0  0  0  0
   73.0440    0.7963    4.9153 N   0  0  0  0  0  0  0  0  0  0  0  0
   72.3654   -1.4563    4.8630 O   0  0  0  0  0  0  0  0  0  0  0  0
   71.1404    7.0142    5.3655 O   0  0  0  0  0  0  0  0  0  0  0  0
   75.0180    1.0467    2.3601 S   0  0  0  0  0  0  0  0  0  0  0  0
   66.5368   -4.6481    6.1302 H   0  0  0  0  0  0  0  0  0  0  0  0
   66.8070   -3.1820    4.1646 H   0  0  0  0  0  0  0  0  0  0  0  0
   76.6571   -2.0964    1.6693 H   0  0  0  0  0  0  0  0  0  0  0  0
   67.9582   -4.3484    8.1486 H   0  0  0  0  0  0  0  0  0  0  0  0
   68.5148   -1.3612    4.1550 H   0  0  0  0  0  0  0  0  0  0  0  0
   71.0837    3.6724    1.9668 H   0  0  0  0  0  0  0  0  0  0  0  0
   72.7835    5.3023    5.5773 H   0  0  0  0  0  0  0  0  0  0  0  0
   71.7632    1.4136    2.6657 H   0  0  0  0  0  0  0  0  0  0  0  0
   73.4640    3.0427    6.2764 H   0  0  0  0  0  0  0  0  0  0  0  0
   75.8670   -1.9487    4.1943 H   0  0  0  0  0  0  0  0  0  0  0  0
   76.0297    0.0934    0.3505 H   0  0  0  0  0  0  0  0  0  0  0  0
   69.2793    8.8668    1.8504 H   0  0  0  0  0  0  0  0  0  0  0  0
   68.7020    7.6710    3.0203 H   0  0  0  0  0  0  0  0  0  0  0  0
   69.7986    7.1824    1.7198 H   0  0  0  0  0  0  0  0  0  0  0  0
   71.7025    9.6210    1.8731 H   0  0  0  0  0  0  0  0  0  0  0  0
   72.2344    7.9454    1.7237 H   0  0  0  0  0  0  0  0  0  0  0  0
   72.8466    8.9417    3.0444 H   0  0  0  0  0  0  0  0  0  0  0  0
   70.1272   10.3308    3.7425 H   0  0  0  0  0  0  0  0  0  0  0  0
   71.2250    9.6720    4.9685 H   0  0  0  0  0  0  0  0  0  0  0  0
   69.5375    9.1605    4.9235 H   0  0  0  0  0  0  0  0  0  0  0  0
   74.6322   -0.2613    5.8132 H   0  0  0  0  0  0  0  0  0  0  0  0
   75.0044    1.4089    5.3845 H   0  0  0  0  0  0  0  0  0  0  0  0
   70.8430    0.9486    6.3746 H   0  0  0  0  0  0  0  0  0  0  0  0
   70.0356    0.3015    4.9170 H   0  0  0  0  0  0  0  0  0  0  0  0
   71.4701    6.0814    2.3166 H   0  0  0  0  0  0  0  0  0  0  0  0
  1  2  1  0  0  0  0
  1  4  2  0  0  0  0
  2  5  2  0  0  0  0
  3 10  1  0  0  0  0
  3 11  2  0  0  0  0
  4 12  1  0  0  0  0
  5 13  1  0  0  0  0
  6  8  1  0  0  0  0
  6 14  2  0  0  0  0
  7  9  2  0  0  0  0
  7 14  1  0  0  0  0
  8 15  2  0  0  0  0
  9 15  1  0  0  0  0
 10 16  2  0  0  0  0
 11 32  1  0  0  0  0
 12 13  2  0  0  0  0
 12 25  1  0  0  0  0
 13 27  1  0  0  0  0
 14 28  1  0  0  0  0
 15 29  1  0  0  0  0
 16 22  1  0  0  0  0
 16 32  1  0  0  0  0
 17 23  1  0  0  0  0
 17 29  1  0  0  0  0
 17 30  2  0  0  0  0
 18 24  1  0  0  0  0
 18 28  1  0  0  0  0
 18 31  2  0  0  0  0
 19 24  1  0  0  0  0
 20 24  1  0  0  0  0
 21 24  1  0  0  0  0
 22 29  1  0  0  0  0
 23 27  1  0  0  0  0
 25 26  2  0  0  0  0
 26 27  1  0  0  0  0
  1 33  1  0  0  0  0
  2 34  1  0  0  0  0
  3 35  1  0  0  0  0
  4 36  1  0  0  0  0
  5 37  1  0  0  0  0
  6 38  1  0  0  0  0
  7 39  1  0  0  0  0
  8 40  1  0  0  0  0
  9 41  1  0  0  0  0
 10 42  1  0  0  0  0
 11 43  1  0  0  0  0
 19 44  1  0  0  0  0
 19 45  1  0  0  0  0
 19 46  1  0  0  0  0
 20 47  1  0  0  0  0
 20 48  1  0  0  0  0
 20 49  1  0  0  0  0
 21 50  1  0  0  0  0
 21 51  1  0  0  0  0
 21 52  1  0  0  0  0
 22 53  1  0  0  0  0
 22 54  1  0  0  0  0
 23 55  1  0  0  0  0
 23 56  1  0  0  0  0
 28 57  1  0  0  0  0
M  END
> <FRED Chemgauss4 score>
-8.961891

$$$$
LIG_01
  -OEChem-05252000023D

 51 54  0     0  0  0  0  0  0999 V2000
   67.1783   -3.8327    6.1180 C   0  0  0  0  0  0  0  0  0  0  0  0
   67.3760   -2.9302    5.0685 C   0  0  0  0  0  0  0  0  0  0  0  0
   76.8953    1.3324    2.4785 C   0  0  0  0  0  0  0  0  0  0  0  0
   67.9905   -3.8044    7.2593 C   0  0  0  0  0  0  0  0  0  0  0  0
   68.3898   -1.9670    5.1183 C   0  0  0  0  0  0  0  0  0  0  0  0
   71.2170    3.4422    3.8390 C   0  0  0  0  0  0  0  0  0  0  0  0
   73.1040    4.2820    5.0923 C   0  0  0  0  0  0  0  0  0  0  0  0
   71.6035    2.1347    4.1332 C   0  0  0  0  0  0  0  0  0  0  0  0
   73.4905    2.9745    5.3865 C   0  0  0  0  0  0  0  0  0  0  0  0
   76.5856    1.0959    3.8490 C   0  0  0  0  0  0  0  0  0  0  0  0
   75.8291    1.0547    1.6516 C   0  0  0  0  0  0  0  0  0  0  0  0
   69.0103   -2.8436    7.3216 C   0  0  0  0  0  0  0  0  0  0  0  0
   69.1823   -1.9609    6.2642 C   0  0  0  0  0  0  0  0  0  0  0  0
   71.9673    4.5159    4.3185 C   0  0  0  0  0  0  0  0  0  0  0  0
   72.7402    1.9008    4.9070 C   0  0  0  0  0  0  0  0  0  0  0  0
   75.2942    0.6465    4.0175 C   0  0  0  0  0  0  0  0  0  0  0  0
   71.7785    6.9818    4.7934 C   0  0  0  0  0  0  0  0  0  0  0  0
   72.1893   -0.4947    5.3250 C   0  0  0  0  0  0  0  0  0  0  0  0
   69.7120    8.0762    3.8250 C   0  0  0  0  0  0  0  0  0  0  0  0
   74.5887    0.2882    5.2934 C   0  0  0  0  0  0  0  0  0  0  0  0
   71.1991    8.2068    4.1017 C   0  0  0  0  0  0  0  0  0  0  0  0
   70.8619   -0.1038    5.9591 C   0  0  0  0  0  0  0  0  0  0  0  0
   69.9427   -2.5802    8.2901 N   0  0  0  0  0  0  0  0  0  0  0  0
   70.6914   -1.5641    7.8753 N   0  0  0  0  0  0  0  0  0  0  0  0
   70.2378   -1.1944    6.6661 N   0  0  0  0  0  0  0  0  0  0  0  0
   71.5811    5.8237    4.0240 N   0  0  0  0  0  0  0  0  0  0  0  0
   73.1420    0.5427    5.2128 N   0  0  0  0  0  0  0  0  0  0  0  0
   72.3369    7.0534    5.8832 O   0  0  0  0  0  0  0  0  0  0  0  0
   72.3775   -1.6642    4.9799 O   0  0  0  0  0  0  0  0  0  0  0  0
   74.4615    0.5113    2.5273 S   0  0  0  0  0  0  0  0  0  0  0  0
   66.3816   -4.5690    6.0481 H   0  0  0  0  0  0  0  0  0  0  0  0
   66.7292   -2.9772    4.1957 H   0  0  0  0  0  0  0  0  0  0  0  0
   77.8508    1.6889    2.1167 H   0  0  0  0  0  0  0  0  0  0  0  0
   67.8298   -4.5087    8.0688 H   0  0  0  0  0  0  0  0  0  0  0  0
   68.5442   -1.2667    4.3057 H   0  0  0  0  0  0  0  0  0  0  0  0
   70.3294    3.6122    3.2351 H   0  0  0  0  0  0  0  0  0  0  0  0
   73.6959    5.1113    5.4714 H   0  0  0  0  0  0  0  0  0  0  0  0
   71.0111    1.3059    3.7535 H   0  0  0  0  0  0  0  0  0  0  0  0
   74.3784    2.8040    5.9897 H   0  0  0  0  0  0  0  0  0  0  0  0
   77.2782    1.2505    4.6666 H   0  0  0  0  0  0  0  0  0  0  0  0
   75.7878    1.1446    0.5753 H   0  0  0  0  0  0  0  0  0  0  0  0
   69.5049    7.2083    3.1902 H   0  0  0  0  0  0  0  0  0  0  0  0
   69.3394    8.9697    3.3148 H   0  0  0  0  0  0  0  0  0  0  0  0
   69.1483    7.9535    4.7556 H   0  0  0  0  0  0  0  0  0  0  0  0
   74.7321   -0.7720    5.5292 H   0  0  0  0  0  0  0  0  0  0  0  0
   74.9837    0.8651    6.1362 H   0  0  0  0  0  0  0  0  0  0  0  0
   71.3769    9.0816    4.7377 H   0  0  0  0  0  0  0  0  0  0  0  0
   71.7347    8.3589    3.1576 H   0  0  0  0  0  0  0  0  0  0  0  0
   71.0108    0.7073    6.6800 H   0  0  0  0  0  0  0  0  0  0  0  0
   70.1575    0.2220    5.1862 H   0  0  0  0  0  0  0  0  0  0  0  0
   71.0902    5.9636    3.1332 H   0  0  0  0  0  0  0  0  0  0  0  0
  1  2  1  0  0  0  0
  1  4  2  0  0  0  0
  2  5  2  0  0  0  0
  3 10  1  0  0  0  0
  3 11  2  0  0  0  0
  4 12  1  0  0  0  0
  5 13  1  0  0  0  0
  6  8  1  0  0  0  0
  6 14  2  0  0  0  0
  7  9  2  0  0  0  0
  7 14  1  0  0  0  0
  8 15  2  0  0  0  0
  9 15  1  0  0  0  0
 10 16  2  0  0  0  0
 11 30  1  0  0  0  0
 12 13  2  0  0  0  0
 12 23  1  0  0  0  0
 13 25  1  0  0  0  0
 14 26  1  0  0  0  0
 15 27  1  0  0  0  0
 16 20  1  0  0  0  0
 16 30  1  0  0  0  0
 17 21  1  0  0  0  0
 17 26  1  0  0  0  0
 17 28  2  0  0  0  0
 18 22  1  0  0  0  0
 18 27  1  0  0  0  0
 18 29  2  0  0  0  0
 19 21  1  0  0  0  0
 20 27  1  0  0  0  0
 22 25  1  0  0  0  0
 23 24  2  0  0  0  0
 24 25  1  0  0  0  0
  1 31  1  0  0  0  0
  2 32  1  0  0  0  0
  3 33  1  0  0  0  0
  4 34  1  0  0  0  0
  5 35  1  0  0  0  0
  6 36  1  0  0  0  0
  7 37  1  0  0  0  0
  8 38  1  0  0  0  0
  9 39  1  0  0  0  0
 10 40  1  0  0  0  0
 11 41  1  0  0  0  0
 19 42  1  0  0  0  0
 19 43  1  0  0  0  0
 19 44  1  0  0  0  0
 20 45  1  0  0  0  0
 20 46  1  0  0  0  0
 21 47  1  0  0  0  0
 21 48  1  0  0  0  0
 22 49  1  0  0  0  0
 22 50  1  0  0  0  0
 26 51  1  0  0  0  0
M  END
> <FRED Chemgauss4 score>
-9.736621

$$$$
LIG_08
  -OEChem-05252000023D

 58 61  0     0  0  0  0  0  0999 V2000
   67.8985   -3.2019    7.2187 C   0  0  0  0  0  0  0  0  0  0  0  0
   68.7790   -2.4807    8.0309 C   0  0  0  0  0  0  0  0  0  0  0  0
   74.9526   -0.5896    2.1647 C   0  0  0  0  0  0  0  0  0  0  0  0
   67.6543   -2.8152    5.8944 C   0  0  0  0  0  0  0  0  0  0  0  0
   69.4479   -1.3484    7.5529 C   0  0  0  0  0  0  0  0  0  0  0  0
   72.9402    4.5575    3.3058 C   0  0  0  0  0  0  0  0  0  0  0  0
   71.7531    5.0175    5.3591 C   0  0  0  0  0  0  0  0  0  0  0  0
   73.2226    3.2685    3.7578 C   0  0  0  0  0  0  0  0  0  0  0  0
   72.0354    3.7284    5.8111 C   0  0  0  0  0  0  0  0  0  0  0  0
   74.1734   -0.1702    3.2815 C   0  0  0  0  0  0  0  0  0  0  0  0
   76.2695   -0.2017    2.2776 C   0  0  0  0  0  0  0  0  0  0  0  0
   68.3186   -1.6820    5.4031 C   0  0  0  0  0  0  0  0  0  0  0  0
   69.1870   -0.9862    6.2330 C   0  0  0  0  0  0  0  0  0  0  0  0
   72.2055    5.4320    4.1065 C   0  0  0  0  0  0  0  0  0  0  0  0
   72.7701    2.8539    5.0104 C   0  0  0  0  0  0  0  0  0  0  0  0
   74.9247    0.5223    4.2056 C   0  0  0  0  0  0  0  0  0  0  0  0
   72.0277    0.6071    5.7962 C   0  0  0  0  0  0  0  0  0  0  0  0
   71.2127    7.7317    4.2984 C   0  0  0  0  0  0  0  0  0  0  0  0
   67.5040    9.7509    3.4415 C   0  0  0  0  0  0  0  0  0  0  0  0
   68.8495    8.3033    1.8951 C   0  0  0  0  0  0  0  0  0  0  0  0
   74.4814    1.1244    5.5075 C   0  0  0  0  0  0  0  0  0  0  0  0
   70.5841    1.0893    5.7777 C   0  0  0  0  0  0  0  0  0  0  0  0
   70.0238    9.6805    3.6365 C   0  0  0  0  0  0  0  0  0  0  0  0
   68.7583    8.8853    3.3040 C   0  0  0  0  0  0  0  0  0  0  0  0
   68.2805   -1.0765    4.1748 N   0  0  0  0  0  0  0  0  0  0  0  0
   69.0944   -0.0269    4.2078 N   0  0  0  0  0  0  0  0  0  0  0  0
   69.6353    0.0272    5.4362 N   0  0  0  0  0  0  0  0  0  0  0  0
   71.9196    6.7384    3.6488 N   0  0  0  0  0  0  0  0  0  0  0  0
   73.0524    1.5647    5.4628 N   0  0  0  0  0  0  0  0  0  0  0  0
   72.2757   -0.5583    6.1164 O   0  0  0  0  0  0  0  0  0  0  0  0
   70.6896    7.6786    5.4048 O   0  0  0  0  0  0  0  0  0  0  0  0
   71.1684    8.8487    3.4991 O   0  0  0  0  0  0  0  0  0  0  0  0
   76.5623    0.6646    3.7255 S   0  0  0  0  0  0  0  0  0  0  0  0
   67.3945   -4.0773    7.6206 H   0  0  0  0  0  0  0  0  0  0  0  0
   68.9478   -2.8056    9.0547 H   0  0  0  0  0  0  0  0  0  0  0  0
   74.5677   -1.1482    1.3215 H   0  0  0  0  0  0  0  0  0  0  0  0
   66.9694   -3.3810    5.2715 H   0  0  0  0  0  0  0  0  0  0  0  0
   70.1307   -0.7882    8.1811 H   0  0  0  0  0  0  0  0  0  0  0  0
   73.2980    4.8694    2.3279 H   0  0  0  0  0  0  0  0  0  0  0  0
   71.1795    5.6906    5.9912 H   0  0  0  0  0  0  0  0  0  0  0  0
   73.7965    2.5959    3.1251 H   0  0  0  0  0  0  0  0  0  0  0  0
   71.6786    3.4164    6.7891 H   0  0  0  0  0  0  0  0  0  0  0  0
   73.1157   -0.3702    3.3972 H   0  0  0  0  0  0  0  0  0  0  0  0
   77.0737   -0.3851    1.5790 H   0  0  0  0  0  0  0  0  0  0  0  0
   67.5389   10.5966    2.7464 H   0  0  0  0  0  0  0  0  0  0  0  0
   67.4080   10.1515    4.4565 H   0  0  0  0  0  0  0  0  0  0  0  0
   66.5997    9.1759    3.2169 H   0  0  0  0  0  0  0  0  0  0  0  0
   68.9422    9.1003    1.1498 H   0  0  0  0  0  0  0  0  0  0  0  0
   67.9514    7.7246    1.6546 H   0  0  0  0  0  0  0  0  0  0  0  0
   69.7167    7.6418    1.7928 H   0  0  0  0  0  0  0  0  0  0  0  0
   74.5859    0.4005    6.3231 H   0  0  0  0  0  0  0  0  0  0  0  0
   75.0923    1.9957    5.7658 H   0  0  0  0  0  0  0  0  0  0  0  0
   70.3004    1.4733    6.7635 H   0  0  0  0  0  0  0  0  0  0  0  0
   70.4616    1.8809    5.0306 H   0  0  0  0  0  0  0  0  0  0  0  0
   70.1368   10.5274    2.9515 H   0  0  0  0  0  0  0  0  0  0  0  0
   69.9922   10.0631    4.6624 H   0  0  0  0  0  0  0  0  0  0  0  0
   68.6668    8.0593    4.0207 H   0  0  0  0  0  0  0  0  0  0  0  0
   72.2787    6.9766    2.7274 H   0  0  0  0  0  0  0  0  0  0  0  0
  1  2  1  0  0  0  0
  1  4  2  0  0  0  0
  2  5  2  0  0  0  0
  3 10  1  0  0  0  0
  3 11  2  0  0  0  0
  4 12  1  0  0  0  0
  5 13  1  0  0  0  0
  6  8  1  0  0  0  0
  6 14  2  0  0  0  0
  7  9  2  0  0  0  0
  7 14  1  0  0  0  0
  8 15  2  0  0  0  0
  9 15  1  0  0  0  0
 10 16  2  0  0  0  0
 11 33  1  0  0  0  0
 12 13  2  0  0  0  0
 12 25  1  0  0  0  0
 13 27  1  0  0  0  0
 14 28  1  0  0  0  0
 15 29  1  0  0  0  0
 16 21  1  0  0  0  0
 16 33  1  0  0  0  0
 17 22  1  0  0  0  0
 17 29  1  0  0  0  0
 17 30  2  0  0  0  0
 18 28  1  0  0  0  0
 18 31  2  0  0  0  0
 18 32  1  0  0  0  0
 19 24  1  0  0  0  0
 20 24  1  0  0  0  0
 21 29  1  0  0  0  0
 22 27  1  0  0  0  0
 23 24  1  0  0  0  0
 23 32  1  0  0  0  0
 25 26  2  0  0  0  0
 26 27  1  0  0  0  0
  1 34  1  0  0  0  0
  2 35  1  0  0  0  0
  3 36  1  0  0  0  0
  4 37  1  0  0  0  0
  5 38  1  0  0  0  0
  6 39  1  0  0  0  0
  7 40  1  0  0  0  0
  8 41  1  0  0  0  0
  9 42  1  0  0  0  0
 10 43  1  0  0  0  0
 11 44  1  0  0  0  0
 19 45  1  0  0  0  0
 19 46  1  0  0  0  0
 19 47  1  0  0  0  0
 20 48  1  0  0  0  0
 20 49  1  0  0  0  0
 20 50  1  0  0  0  0
 21 51  1  0  0  0  0
 21 52  1  0  0  0  0
 22 53  1  0  0  0  0
 22 54  1  0  0  0  0
 23 55  1  0  0  0  0
 23 56  1  0  0  0  0
 24 57  1  0  0  0  0
 28 58  1  0  0  0  0
M  END
> <FRED Chemgauss4 score>
-8.550242

$$$$
LIG_05
  -OEChem-05252000023D

 52 56  0     0  0  0  0  0  0999 V2000
   67.0778   -3.6173    6.0030 C   0  0  0  0  0  0  0  0  0  0  0  0
   67.1560   -2.6086    5.0379 C   0  0  0  0  0  0  0  0  0  0  0  0
   75.1929    0.8938    1.2303 C   0  0  0  0  0  0  0  0  0  0  0  0
   67.9965   -3.6812    7.0589 C   0  0  0  0  0  0  0  0  0  0  0  0
   68.1522   -1.6273    5.0901 C   0  0  0  0  0  0  0  0  0  0  0  0
   72.7265    4.7220    5.2587 C   0  0  0  0  0  0  0  0  0  0  0  0
   70.7424    3.9590    4.1106 C   0  0  0  0  0  0  0  0  0  0  0  0
   73.1640    3.4031    5.3792 C   0  0  0  0  0  0  0  0  0  0  0  0
   71.1799    2.6400    4.2311 C   0  0  0  0  0  0  0  0  0  0  0  0
   74.6360    1.4380    2.4235 C   0  0  0  0  0  0  0  0  0  0  0  0
   75.7162   -0.3646    1.4305 C   0  0  0  0  0  0  0  0  0  0  0  0
   69.0000   -2.7035    7.1226 C   0  0  0  0  0  0  0  0  0  0  0  0
   69.0522   -1.7144    6.1501 C   0  0  0  0  0  0  0  0  0  0  0  0
   71.5157    5.0000    4.6244 C   0  0  0  0  0  0  0  0  0  0  0  0
   72.3907    2.3621    4.8654 C   0  0  0  0  0  0  0  0  0  0  0  0
   74.7547    0.5745    3.4904 C   0  0  0  0  0  0  0  0  0  0  0  0
   69.9005    6.7889    3.9064 C   0  0  0  0  0  0  0  0  0  0  0  0
   71.9266   -0.0778    5.0853 C   0  0  0  0  0  0  0  0  0  0  0  0
   70.9127    9.0980    3.4298 C   0  0  0  0  0  0  0  0  0  0  0  0
   69.5954    9.0404    2.7167 C   0  0  0  0  0  0  0  0  0  0  0  0
   69.7954    8.2914    3.9832 C   0  0  0  0  0  0  0  0  0  0  0  0
   74.2970    0.7710    4.9068 C   0  0  0  0  0  0  0  0  0  0  0  0
   70.6603    0.2101    5.8794 C   0  0  0  0  0  0  0  0  0  0  0  0
   70.0173   -2.5129    8.0201 N   0  0  0  0  0  0  0  0  0  0  0  0
   70.7035   -1.4397    7.6428 N   0  0  0  0  0  0  0  0  0  0  0  0
   70.1278   -0.9631    6.5266 N   0  0  0  0  0  0  0  0  0  0  0  0
   71.0778    6.3191    4.5041 N   0  0  0  0  0  0  0  0  0  0  0  0
   72.8449    0.9918    4.9905 N   0  0  0  0  0  0  0  0  0  0  0  0
   69.0189    6.1241    3.3719 O   0  0  0  0  0  0  0  0  0  0  0  0
   72.1014   -1.2009    4.6055 O   0  0  0  0  0  0  0  0  0  0  0  0
   75.5351   -0.8852    3.0518 S   0  0  0  0  0  0  0  0  0  0  0  0
   66.2915   -4.3648    5.9338 H   0  0  0  0  0  0  0  0  0  0  0  0
   66.4284   -2.5856    4.2303 H   0  0  0  0  0  0  0  0  0  0  0  0
   75.2086    1.3987    0.2732 H   0  0  0  0  0  0  0  0  0  0  0  0
   67.9281   -4.4676    7.8033 H   0  0  0  0  0  0  0  0  0  0  0  0
   68.2142   -0.8448    4.3427 H   0  0  0  0  0  0  0  0  0  0  0  0
   73.3375    5.5250    5.6629 H   0  0  0  0  0  0  0  0  0  0  0  0
   69.7973    4.1642    3.6141 H   0  0  0  0  0  0  0  0  0  0  0  0
   74.1092    3.1986    5.8760 H   0  0  0  0  0  0  0  0  0  0  0  0
   70.5689    1.8368    3.8278 H   0  0  0  0  0  0  0  0  0  0  0  0
   74.1714    2.4136    2.4904 H   0  0  0  0  0  0  0  0  0  0  0  0
   76.1965   -1.0030    0.7024 H   0  0  0  0  0  0  0  0  0  0  0  0
   71.7586    8.6054    2.9658 H   0  0  0  0  0  0  0  0  0  0  0  0
   71.1609   10.0100    3.9589 H   0  0  0  0  0  0  0  0  0  0  0  0
   68.9568    9.9141    2.7653 H   0  0  0  0  0  0  0  0  0  0  0  0
   69.5577    8.5109    1.7725 H   0  0  0  0  0  0  0  0  0  0  0  0
   69.2999    8.6226    4.8700 H   0  0  0  0  0  0  0  0  0  0  0  0
   74.5405   -0.1059    5.5164 H   0  0  0  0  0  0  0  0  0  0  0  0
   74.7936    1.6332    5.3642 H   0  0  0  0  0  0  0  0  0  0  0  0
   70.8639    0.9485    6.6625 H   0  0  0  0  0  0  0  0  0  0  0  0
   69.8782    0.5922    5.2145 H   0  0  0  0  0  0  0  0  0  0  0  0
   71.6900    7.0408    4.9019 H   0  0  0  0  0  0  0  0  0  0  0  0
  1  2  1  0  0  0  0
  1  4  2  0  0  0  0
  2  5  2  0  0  0  0
  3 10  1  0  0  0  0
  3 11  2  0  0  0  0
  4 12  1  0  0  0  0
  5 13  1  0  0  0  0
  6  8  1  0  0  0  0
  6 14  2  0  0  0  0
  7  9  2  0  0  0  0
  7 14  1  0  0  0  0
  8 15  2  0  0  0  0
  9 15  1  0  0  0  0
 10 16  2  0  0  0  0
 11 31  1  0  0  0  0
 12 13  2  0  0  0  0
 12 24  1  0  0  0  0
 13 26  1  0  0  0  0
 14 27  1  0  0  0  0
 15 28  1  0  0  0  0
 16 22  1  0  0  0  0
 16 31  1  0  0  0  0
 17 21  1  0  0  0  0
 17 27  1  0  0  0  0
 17 29  2  0  0  0  0
 18 23  1  0  0  0  0
 18 28  1  0  0  0  0
 18 30  2  0  0  0  0
 19 20  1  0  0  0  0
 19 21  1  0  0  0  0
 20 21  1  0  0  0  0
 22 28  1  0  0  0  0
 23 26  1  0  0  0  0
 24 25  2  0  0  0  0
 25 26  1  0  0  0  0
  1 32  1  0  0  0  0
  2 33  1  0  0  0  0
  3 34  1  0  0  0  0
  4 35  1  0  0  0  0
  5 36  1  0  0  0  0
  6 37  1  0  0  0  0
  7 38  1  0  0  0  0
  8 39  1  0  0  0  0
  9 40  1  0  0  0  0
 10 41  1  0  0  0  0
 11 42  1  0  0  0  0
 19 43  1  0  0  0  0
 19 44  1  0  0  0  0
 20 45  1  0  0  0  0
 20 46  1  0  0  0  0
 21 47  1  0  0  0  0
 22 48  1  0  0  0  0
 22 49  1  0  0  0  0
 23 50  1  0  0  0  0
 23 51  1  0  0  0  0
 27 52  1  0  0  0  0
M  END
> <FRED Chemgauss4 score>
-9.719243

$$$$
LIG_02
  -OEChem-05252000023D

 54 57  0     0  0  0  0  0  0999 V2000
   67.2052   -3.8968    6.5183 C   0  0  0  0  0  0  0  0  0  0  0  0
   67.2160   -3.0361    5.4165 C   0  0  0  0  0  0  0  0  0  0  0  0
   76.3415    0.1942    2.3350 C   0  0  0  0  0  0  0  0  0  0  0  0
   68.2115   -3.8390    7.4915 C   0  0  0  0  0  0  0  0  0  0  0  0
   68.2295   -2.0867    5.2447 C   0  0  0  0  0  0  0  0  0  0  0  0
   70.6550    3.4395    3.4883 C   0  0  0  0  0  0  0  0  0  0  0  0
   71.4032    4.5565    5.4956 C   0  0  0  0  0  0  0  0  0  0  0  0
   71.4147    2.3202    3.8279 C   0  0  0  0  0  0  0  0  0  0  0  0
   72.1629    3.4372    5.8354 C   0  0  0  0  0  0  0  0  0  0  0  0
   75.9797    0.1249    3.7114 C   0  0  0  0  0  0  0  0  0  0  0  0
   75.6724    1.2007    1.6741 C   0  0  0  0  0  0  0  0  0  0  0  0
   69.2332   -2.8918    7.3310 C   0  0  0  0  0  0  0  0  0  0  0  0
   69.2171   -2.0507    6.2268 C   0  0  0  0  0  0  0  0  0  0  0  0
   70.6492    4.5578    4.3221 C   0  0  0  0  0  0  0  0  0  0  0  0
   72.1687    2.3189    5.0015 C   0  0  0  0  0  0  0  0  0  0  0  0
   75.0479    1.0815    4.0501 C   0  0  0  0  0  0  0  0  0  0  0  0
   72.3539   -0.1052    5.5547 C   0  0  0  0  0  0  0  0  0  0  0  0
   69.7576    6.8854    4.6867 C   0  0  0  0  0  0  0  0  0  0  0  0
   68.0898    8.7580    4.9746 C   0  0  0  0  0  0  0  0  0  0  0  0
   69.6180    8.7225    2.9860 C   0  0  0  0  0  0  0  0  0  0  0  0
   74.4174    1.3389    5.3881 C   0  0  0  0  0  0  0  0  0  0  0  0
   70.8358   -0.2143    5.5377 C   0  0  0  0  0  0  0  0  0  0  0  0
   68.8245    7.8688    3.9735 C   0  0  0  0  0  0  0  0  0  0  0  0
   70.3281   -2.6071    8.1035 N   0  0  0  0  0  0  0  0  0  0  0  0
   70.9970   -1.6178    7.5211 N   0  0  0  0  0  0  0  0  0  0  0  0
   70.3341   -1.2858    6.4009 N   0  0  0  0  0  0  0  0  0  0  0  0
   69.8787    5.6938    3.9773 N   0  0  0  0  0  0  0  0  0  0  0  0
   72.9287    1.1995    5.3416 N   0  0  0  0  0  0  0  0  0  0  0  0
   73.0336   -1.1113    5.7736 O   0  0  0  0  0  0  0  0  0  0  0  0
   70.3068    7.1739    5.7462 O   0  0  0  0  0  0  0  0  0  0  0  0
   74.6131    2.0571    2.7117 S   0  0  0  0  0  0  0  0  0  0  0  0
   66.4033   -4.6233    6.6225 H   0  0  0  0  0  0  0  0  0  0  0  0
   66.4211   -3.1052    4.6779 H   0  0  0  0  0  0  0  0  0  0  0  0
   77.0566   -0.4600    1.8536 H   0  0  0  0  0  0  0  0  0  0  0  0
   68.1950   -4.5110    8.3433 H   0  0  0  0  0  0  0  0  0  0  0  0
   68.2393   -1.4189    4.3912 H   0  0  0  0  0  0  0  0  0  0  0  0
   70.0715    3.4290    2.5713 H   0  0  0  0  0  0  0  0  0  0  0  0
   71.4058    5.4224    6.1529 H   0  0  0  0  0  0  0  0  0  0  0  0
   71.4117    1.4547    3.1700 H   0  0  0  0  0  0  0  0  0  0  0  0
   72.7471    3.4475    6.7517 H   0  0  0  0  0  0  0  0  0  0  0  0
   76.3865   -0.5914    4.4139 H   0  0  0  0  0  0  0  0  0  0  0  0
   75.7547    1.4739    0.6315 H   0  0  0  0  0  0  0  0  0  0  0  0
   68.7987    9.3607    5.5527 H   0  0  0  0  0  0  0  0  0  0  0  0
   67.5085    8.1534    5.6785 H   0  0  0  0  0  0  0  0  0  0  0  0
   67.4021    9.4465    4.4709 H   0  0  0  0  0  0  0  0  0  0  0  0
   70.3771    9.3165    3.5056 H   0  0  0  0  0  0  0  0  0  0  0  0
   68.9664    9.4153    2.4434 H   0  0  0  0  0  0  0  0  0  0  0  0
   70.1232    8.0974    2.2414 H   0  0  0  0  0  0  0  0  0  0  0  0
   74.7988    0.6355    6.1364 H   0  0  0  0  0  0  0  0  0  0  0  0
   74.6482    2.3486    5.7435 H   0  0  0  0  0  0  0  0  0  0  0  0
   70.3848    0.7211    5.8862 H   0  0  0  0  0  0  0  0  0  0  0  0
   70.4857   -0.4302    4.5225 H   0  0  0  0  0  0  0  0  0  0  0  0
   68.0745    7.2878    3.4216 H   0  0  0  0  0  0  0  0  0  0  0  0
   69.3513    5.6324    3.1091 H   0  0  0  0  0  0  0  0  0  0  0  0
  1  2  1  0  0  0  0
  1  4  2  0  0  0  0
  2  5  2  0  0  0  0
  3 10  1  0  0  0  0
  3 11  2  0  0  0  0
  4 12  1  0  0  0  0
  5 13  1  0  0  0  0
  6  8  1  0  0  0  0
  6 14  2  0  0  0  0
  7  9  2  0  0  0  0
  7 14  1  0  0  0  0
  8 15  2  0  0  0  0
  9 15  1  0  0  0  0
 10 16  2  0  0  0  0
 11 31  1  0  0  0  0
 12 13  2  0  0  0  0
 12 24  1  0  0  0  0
 13 26  1  0  0  0  0
 14 27  1  0  0  0  0
 15 28  1  0  0  0  0
 16 21  1  0  0  0  0
 16 31  1  0  0  0  0
 17 22  1  0  0  0  0
 17 28  1  0  0  0  0
 17 29  2  0  0  0  0
 18 23  1  0  0  0  0
 18 27  1  0  0  0  0
 18 30  2  0  0  0  0
 19 23  1  0  0  0  0
 20 23  1  0  0  0  0
 21 28  1  0  0  0  0
 22 26  1  0  0  0  0
 24 25  2  0  0  0  0
 25 26  1  0  0  0  0
  1 32  1  0  0  0  0
  2 33  1  0  0  0  0
  3 34  1  0  0  0  0
  4 35  1  0  0  0  0
  5 36  1  0  0  0  0
  6 37  1  0  0  0  0
  7 38  1  0  0  0  0
  8 39  1  0  0  0  0
  9 40  1  0  0  0  0
 10 41  1  0  0  0  0
 11 42  1  0  0  0  0
 19 43  1  0  0  0  0
 19 44  1  0  0  0  0
 19 45  1  0  0  0  0
 20 46  1  0  0  0  0
 20 47  1  0  0  0  0
 20 48  1  0  0  0  0
 21 49  1  0  0  0  0
 21 50  1  0  0  0  0
 22 51  1  0  0  0  0
 22 52  1  0  0  0  0
 23 53  1  0  0  0  0
 27 54  1  0  0  0  0
M  END
> <FRED Chemgauss4 score>
-9.413980

$$$$
LIG_13
  -OEChem-05252000023D

 54 58  0     0  0  0  0  0  0999 V2000
   67.2488   -3.9304    6.2542 C   0  0  0  0  0  0  0  0  0  0  0  0
   67.3592   -3.0100    5.2075 C   0  0  0  0  0  0  0  0  0  0  0  0
   70.5665    7.6703    2.4823 C   0  0  0  0  0  0  0  0  0  0  0  0
   76.3454   -0.0201    1.8503 C   0  0  0  0  0  0  0  0  0  0  0  0
   71.0136    6.3777    2.7323 C   0  0  0  0  0  0  0  0  0  0  0  0
   70.9040    3.5066    3.8597 C   0  0  0  0  0  0  0  0  0  0  0  0
   72.8234    4.4012    5.0228 C   0  0  0  0  0  0  0  0  0  0  0  0
   68.1185   -3.8856    7.3518 C   0  0  0  0  0  0  0  0  0  0  0  0
   68.3399   -2.0119    5.2166 C   0  0  0  0  0  0  0  0  0  0  0  0
   71.3517    2.2110    4.1173 C   0  0  0  0  0  0  0  0  0  0  0  0
   73.2711    3.1055    5.2804 C   0  0  0  0  0  0  0  0  0  0  0  0
   76.2180    0.4405    3.1926 C   0  0  0  0  0  0  0  0  0  0  0  0
   70.2981    8.4855    3.5700 C   0  0  0  0  0  0  0  0  0  0  0  0
   75.2021   -0.6484    1.4081 C   0  0  0  0  0  0  0  0  0  0  0  0
   71.6398    4.6018    4.3124 C   0  0  0  0  0  0  0  0  0  0  0  0
   71.1765    5.9459    4.0439 C   0  0  0  0  0  0  0  0  0  0  0  0
   69.1060   -2.8899    7.3731 C   0  0  0  0  0  0  0  0  0  0  0  0
   69.1910   -1.9901    6.3195 C   0  0  0  0  0  0  0  0  0  0  0  0
   72.5352    2.0104    4.8277 C   0  0  0  0  0  0  0  0  0  0  0  0
   74.9818    0.1468    3.7251 C   0  0  0  0  0  0  0  0  0  0  0  0
   70.8810    6.8384    5.0618 C   0  0  0  0  0  0  0  0  0  0  0  0
   72.0913   -0.4077    5.2432 C   0  0  0  0  0  0  0  0  0  0  0  0
   70.7005    7.4305    7.3580 C   0  0  0  0  0  0  0  0  0  0  0  0
   74.4568    0.4605    5.0963 C   0  0  0  0  0  0  0  0  0  0  0  0
   70.7863   -0.0712    5.9508 C   0  0  0  0  0  0  0  0  0  0  0  0
   70.4444    8.1015    4.8579 N   0  0  0  0  0  0  0  0  0  0  0  0
   70.0783   -2.6041    8.2947 N   0  0  0  0  0  0  0  0  0  0  0  0
   70.7681   -1.5575    7.8544 N   0  0  0  0  0  0  0  0  0  0  0  0
   70.2387   -1.1910    6.6754 N   0  0  0  0  0  0  0  0  0  0  0  0
   72.9998    0.6642    5.0947 N   0  0  0  0  0  0  0  0  0  0  0  0
   72.3017   -1.5658    4.8738 O   0  0  0  0  0  0  0  0  0  0  0  0
   71.0235    6.4583    6.3715 O   0  0  0  0  0  0  0  0  0  0  0  0
   73.9816   -0.6812    2.6087 S   0  0  0  0  0  0  0  0  0  0  0  0
   66.4757   -4.6938    6.2167 H   0  0  0  0  0  0  0  0  0  0  0  0
   66.6694   -3.0704    4.3691 H   0  0  0  0  0  0  0  0  0  0  0  0
   70.4325    8.0279    1.4677 H   0  0  0  0  0  0  0  0  0  0  0  0
   77.2300    0.1035    1.2393 H   0  0  0  0  0  0  0  0  0  0  0  0
   71.2299    5.7188    1.8949 H   0  0  0  0  0  0  0  0  0  0  0  0
   69.9798    3.6473    3.3040 H   0  0  0  0  0  0  0  0  0  0  0  0
   73.4089    5.2443    5.3814 H   0  0  0  0  0  0  0  0  0  0  0  0
   68.0254   -4.6041    8.1595 H   0  0  0  0  0  0  0  0  0  0  0  0
   68.4268   -1.2977    4.4060 H   0  0  0  0  0  0  0  0  0  0  0  0
   70.7713    1.3650    3.7577 H   0  0  0  0  0  0  0  0  0  0  0  0
   74.1959    2.9605    5.8333 H   0  0  0  0  0  0  0  0  0  0  0  0
   76.9963    0.9619    3.7354 H   0  0  0  0  0  0  0  0  0  0  0  0
   69.9465    9.5022    3.4295 H   0  0  0  0  0  0  0  0  0  0  0  0
   75.0253   -1.0901    0.4375 H   0  0  0  0  0  0  0  0  0  0  0  0
   70.8551    7.0063    8.3531 H   0  0  0  0  0  0  0  0  0  0  0  0
   69.6587    7.7388    7.2395 H   0  0  0  0  0  0  0  0  0  0  0  0
   71.3521    8.2979    7.2289 H   0  0  0  0  0  0  0  0  0  0  0  0
   74.6826   -0.3550    5.7921 H   0  0  0  0  0  0  0  0  0  0  0  0
   74.9212    1.3677    5.4969 H   0  0  0  0  0  0  0  0  0  0  0  0
   70.9445    0.7368    6.6733 H   0  0  0  0  0  0  0  0  0  0  0  0
   70.0311    0.2378    5.2200 H   0  0  0  0  0  0  0  0  0  0  0  0
  1  2  1  0  0  0  0
  1  8  2  0  0  0  0
  2  9  2  0  0  0  0
  3  5  2  0  0  0  0
  3 13  1  0  0  0  0
  4 12  1  0  0  0  0
  4 14  2  0  0  0  0
  5 16  1  0  0  0  0
  6 10  1  0  0  0  0
  6 15  2  0  0  0  0
  7 11  2  0  0  0  0
  7 15  1  0  0  0  0
  8 17  1  0  0  0  0
  9 18  1  0  0  0  0
 10 19  2  0  0  0  0
 11 19  1  0  0  0  0
 12 20  2  0  0  0  0
 13 26  2  0  0  0  0
 14 33  1  0  0  0  0
 15 16  1  0  0  0  0
 16 21  2  0  0  0  0
 17 18  2  0  0  0  0
 17 27  1  0  0  0  0
 18 29  1  0  0  0  0
 19 30  1  0  0  0  0
 20 24  1  0  0  0  0
 20 33  1  0  0  0  0
 21 26  1  0  0  0  0
 21 32  1  0  0  0  0
 22 25  1  0  0  0  0
 22 30  1  0  0  0  0
 22 31  2  0  0  0  0
 23 32  1  0  0  0  0
 24 30  1  0  0  0  0
 25 29  1  0  0  0  0
 27 28  2  0  0  0  0
 28 29  1  0  0  0  0
  1 34  1  0  0  0  0
  2 35  1  0  0  0  0
  3 36  1  0  0  0  0
  4 37  1  0  0  0  0
  5 38  1  0  0  0  0
  6 39  1  0  0  0  0
  7 40  1  0  0  0  0
  8 41  1  0  0  0  0
  9 42  1  0  0  0  0
 10 43  1  0  0  0  0
 11 44  1  0  0  0  0
 12 45  1  0  0  0  0
 13 46  1  0  0  0  0
 14 47  1  0  0  0  0
 23 48  1  0  0  0  0
 23 49  1  0  0  0  0
 23 50  1  0  0  0  0
 24 51  1  0  0  0  0
 24 52  1  0  0  0  0
 25 53  1  0  0  0  0
 25 54  1  0  0  0  0
M  END
> <FRED Chemgauss4 score>
-12.048845

$$$$
LIG_04
  -OEChem-05252000033D

 55 58  0     0  0  0  0  0  0999 V2000
   67.2364   -3.0619    5.6962 C   0  0  0  0  0  0  0  0  0  0  0  0
   67.5627   -2.1055    4.7299 C   0  0  0  0  0  0  0  0  0  0  0  0
   73.4616   -1.1936    0.1761 C   0  0  0  0  0  0  0  0  0  0  0  0
   68.0860   -3.3129    6.7816 C   0  0  0  0  0  0  0  0  0  0  0  0
   68.7471   -1.3646    4.8103 C   0  0  0  0  0  0  0  0  0  0  0  0
   73.2675    3.8916    5.1845 C   0  0  0  0  0  0  0  0  0  0  0  0
   72.0994    3.4998    3.1063 C   0  0  0  0  0  0  0  0  0  0  0  0
   73.6251    2.5444    5.2375 C   0  0  0  0  0  0  0  0  0  0  0  0
   72.4570    2.1526    3.1593 C   0  0  0  0  0  0  0  0  0  0  0  0
   73.3627   -1.0036    1.5847 C   0  0  0  0  0  0  0  0  0  0  0  0
   74.6822   -0.7872   -0.3164 C   0  0  0  0  0  0  0  0  0  0  0  0
   69.2763   -2.5770    6.8739 C   0  0  0  0  0  0  0  0  0  0  0  0
   69.5733   -1.6340    5.8994 C   0  0  0  0  0  0  0  0  0  0  0  0
   72.5046    4.3693    4.1189 C   0  0  0  0  0  0  0  0  0  0  0  0
   73.2199    1.6749    4.2249 C   0  0  0  0  0  0  0  0  0  0  0  0
   74.5117   -0.4594    2.1153 C   0  0  0  0  0  0  0  0  0  0  0  0
   71.9355    6.4659    2.9105 C   0  0  0  0  0  0  0  0  0  0  0  0
   72.7671   -0.6759    4.9218 C   0  0  0  0  0  0  0  0  0  0  0  0
   68.1805    7.4475    4.6773 C   0  0  0  0  0  0  0  0  0  0  0  0
   74.8062   -0.1109    3.5457 C   0  0  0  0  0  0  0  0  0  0  0  0
   71.5591    7.8992    3.2716 C   0  0  0  0  0  0  0  0  0  0  0  0
   71.5704   -0.1098    5.6731 C   0  0  0  0  0  0  0  0  0  0  0  0
   70.0597    8.1029    3.4276 C   0  0  0  0  0  0  0  0  0  0  0  0
   70.2825   -2.6029    7.8031 N   0  0  0  0  0  0  0  0  0  0  0  0
   71.1978   -1.7094    7.4438 N   0  0  0  0  0  0  0  0  0  0  0  0
   70.7748   -1.1312    6.3075 N   0  0  0  0  0  0  0  0  0  0  0  0
   72.1465    5.7166    4.0660 N   0  0  0  0  0  0  0  0  0  0  0  0
   73.5911    0.2754    4.2796 N   0  0  0  0  0  0  0  0  0  0  0  0
   72.0239    6.0929    1.7457 O   0  0  0  0  0  0  0  0  0  0  0  0
   72.9732   -1.8922    4.9344 O   0  0  0  0  0  0  0  0  0  0  0  0
   69.5792    7.2845    4.4862 O   0  0  0  0  0  0  0  0  0  0  0  0
   75.7027   -0.1796    0.9172 S   0  0  0  0  0  0  0  0  0  0  0  0
   66.3084   -3.6206    5.6045 H   0  0  0  0  0  0  0  0  0  0  0  0
   66.8829   -1.9333    3.8989 H   0  0  0  0  0  0  0  0  0  0  0  0
   72.6782   -1.6079   -0.4449 H   0  0  0  0  0  0  0  0  0  0  0  0
   67.8246   -4.0571    7.5267 H   0  0  0  0  0  0  0  0  0  0  0  0
   69.0015   -0.6229    4.0621 H   0  0  0  0  0  0  0  0  0  0  0  0
   73.5890    4.5597    5.9794 H   0  0  0  0  0  0  0  0  0  0  0  0
   71.5049    3.8614    2.2711 H   0  0  0  0  0  0  0  0  0  0  0  0
   74.2194    2.1835    6.0733 H   0  0  0  0  0  0  0  0  0  0  0  0
   72.1351    1.4840    2.3652 H   0  0  0  0  0  0  0  0  0  0  0  0
   72.4909   -1.2565    2.1748 H   0  0  0  0  0  0  0  0  0  0  0  0
   75.0234   -0.8177   -1.3415 H   0  0  0  0  0  0  0  0  0  0  0  0
   67.8467    6.8055    5.4962 H   0  0  0  0  0  0  0  0  0  0  0  0
   67.6531    7.1857    3.7566 H   0  0  0  0  0  0  0  0  0  0  0  0
   67.9753    8.4908    4.9284 H   0  0  0  0  0  0  0  0  0  0  0  0
   75.2577   -0.9629    4.0656 H   0  0  0  0  0  0  0  0  0  0  0  0
   75.5147    0.7217    3.6094 H   0  0  0  0  0  0  0  0  0  0  0  0
   71.9311    8.5521    2.4735 H   0  0  0  0  0  0  0  0  0  0  0  0
   72.0725    8.1588    4.2050 H   0  0  0  0  0  0  0  0  0  0  0  0
   71.9061    0.5751    6.4593 H   0  0  0  0  0  0  0  0  0  0  0  0
   70.9115    0.4263    4.9815 H   0  0  0  0  0  0  0  0  0  0  0  0
   69.8500    9.1458    3.6857 H   0  0  0  0  0  0  0  0  0  0  0  0
   69.5177    7.8502    2.5107 H   0  0  0  0  0  0  0  0  0  0  0  0
   72.0283    6.1978    4.9558 H   0  0  0  0  0  0  0  0  0  0  0  0
  1  2  1  0  0  0  0
  1  4  2  0  0  0  0
  2  5  2  0  0  0  0
  3 10  1  0  0  0  0
  3 11  2  0  0  0  0
  4 12  1  0  0  0  0
  5 13  1  0  0  0  0
  6  8  1  0  0  0  0
  6 14  2  0  0  0  0
  7  9  2  0  0  0  0
  7 14  1  0  0  0  0
  8 15  2  0  0  0  0
  9 15  1  0  0  0  0
 10 16  2  0  0  0  0
 11 32  1  0  0  0  0
 12 13  2  0  0  0  0
 12 24  1  0  0  0  0
 13 26  1  0  0  0  0
 14 27  1  0  0  0  0
 15 28  1  0  0  0  0
 16 20  1  0  0  0  0
 16 32  1  0  0  0  0
 17 21  1  0  0  0  0
 17 27  1  0  0  0  0
 17 29  2  0  0  0  0
 18 22  1  0  0  0  0
 18 28  1  0  0  0  0
 18 30  2  0  0  0  0
 19 31  1  0  0  0  0
 20 28  1  0  0  0  0
 21 23  1  0  0  0  0
 22 26  1  0  0  0  0
 23 31  1  0  0  0  0
 24 25  2  0  0  0  0
 25 26  1  0  0  0  0
  1 33  1  0  0  0  0
  2 34  1  0  0  0  0
  3 35  1  0  0  0  0
  4 36  1  0  0  0  0
  5 37  1  0  0  0  0
  6 38  1  0  0  0  0
  7 39  1  0  0  0  0
  8 40  1  0  0  0  0
  9 41  1  0  0  0  0
 10 42  1  0  0  0  0
 11 43  1  0  0  0  0
 19 44  1  0  0  0  0
 19 45  1  0  0  0  0
 19 46  1  0  0  0  0
 20 47  1  0  0  0  0
 20 48  1  0  0  0  0
 21 49  1  0  0  0  0
 21 50  1  0  0  0  0
 22 51  1  0  0  0  0
 22 52  1  0  0  0  0
 23 53  1  0  0  0  0
 23 54  1  0  0  0  0
 27 55  1  0  0  0  0
M  END
> <FRED Chemgauss4 score>
-8.972591

$$$$
LIG_06
  -OEChem-05252000033D

 55 59  0     0  0  0  0  0  0999 V2000
   67.2654   -3.9548    6.4060 C   0  0  0  0  0  0  0  0  0  0  0  0
   67.3579   -3.0294    5.3619 C   0  0  0  0  0  0  0  0  0  0  0  0
   76.6876    1.1174    2.0187 C   0  0  0  0  0  0  0  0  0  0  0  0
   68.1697   -3.9313    7.4759 C   0  0  0  0  0  0  0  0  0  0  0  0
   68.3547   -2.0474    5.3462 C   0  0  0  0  0  0  0  0  0  0  0  0
   73.2277    4.2519    4.9931 C   0  0  0  0  0  0  0  0  0  0  0  0
   71.2007    3.5082    3.9089 C   0  0  0  0  0  0  0  0  0  0  0  0
   73.5848    2.9255    5.2354 C   0  0  0  0  0  0  0  0  0  0  0  0
   71.5579    2.1818    4.1511 C   0  0  0  0  0  0  0  0  0  0  0  0
   76.4782    0.8822    3.4083 C   0  0  0  0  0  0  0  0  0  0  0  0
   75.5379    0.9305    1.2833 C   0  0  0  0  0  0  0  0  0  0  0  0
   69.1736   -2.9520    7.4721 C   0  0  0  0  0  0  0  0  0  0  0  0
   69.2402   -2.0467    6.4219 C   0  0  0  0  0  0  0  0  0  0  0  0
   72.0356    4.5433    4.3299 C   0  0  0  0  0  0  0  0  0  0  0  0
   72.7499    1.8904    4.8144 C   0  0  0  0  0  0  0  0  0  0  0  0
   75.1762    0.5247    3.6821 C   0  0  0  0  0  0  0  0  0  0  0  0
   70.5312    6.3532    3.4438 C   0  0  0  0  0  0  0  0  0  0  0  0
   72.1394   -0.4869    5.2528 C   0  0  0  0  0  0  0  0  0  0  0  0
   69.3327    9.6657    3.3421 C   0  0  0  0  0  0  0  0  0  0  0  0
   69.6130    8.5535    2.3146 C   0  0  0  0  0  0  0  0  0  0  0  0
   69.6697    8.6390    4.4394 C   0  0  0  0  0  0  0  0  0  0  0  0
   70.5167    7.8827    3.3823 C   0  0  0  0  0  0  0  0  0  0  0  0
   74.5567    0.1981    5.0101 C   0  0  0  0  0  0  0  0  0  0  0  0
   70.8630   -0.1339    6.0032 C   0  0  0  0  0  0  0  0  0  0  0  0
   70.1789   -2.6881    8.3644 N   0  0  0  0  0  0  0  0  0  0  0  0
   70.8716   -1.6498    7.9089 N   0  0  0  0  0  0  0  0  0  0  0  0
   70.3116   -1.2671    6.7494 N   0  0  0  0  0  0  0  0  0  0  0  0
   71.6729    5.8889    4.0844 N   0  0  0  0  0  0  0  0  0  0  0  0
   73.1068    0.5636    5.0565 N   0  0  0  0  0  0  0  0  0  0  0  0
   69.6109    5.6967    2.9674 O   0  0  0  0  0  0  0  0  0  0  0  0
   72.3175   -1.6451    4.8667 O   0  0  0  0  0  0  0  0  0  0  0  0
   74.2130    0.4734    2.2673 S   0  0  0  0  0  0  0  0  0  0  0  0
   66.4791   -4.7052    6.3882 H   0  0  0  0  0  0  0  0  0  0  0  0
   66.6413   -3.0731    4.5453 H   0  0  0  0  0  0  0  0  0  0  0  0
   77.6327    1.4096    1.5802 H   0  0  0  0  0  0  0  0  0  0  0  0
   68.0902   -4.6535    8.2818 H   0  0  0  0  0  0  0  0  0  0  0  0
   68.4278   -1.3294    4.5376 H   0  0  0  0  0  0  0  0  0  0  0  0
   73.8861    5.0502    5.3258 H   0  0  0  0  0  0  0  0  0  0  0  0
   70.2697    3.7238    3.3909 H   0  0  0  0  0  0  0  0  0  0  0  0
   74.5160    2.7108    5.7536 H   0  0  0  0  0  0  0  0  0  0  0  0
   70.8994    1.3834    3.8193 H   0  0  0  0  0  0  0  0  0  0  0  0
   77.2469    0.9735    4.1653 H   0  0  0  0  0  0  0  0  0  0  0  0
   75.4126    1.0401    0.2153 H   0  0  0  0  0  0  0  0  0  0  0  0
   70.0385   10.5026    3.2896 H   0  0  0  0  0  0  0  0  0  0  0  0
   68.3129   10.0579    3.3535 H   0  0  0  0  0  0  0  0  0  0  0  0
   68.7261    7.9690    2.0430 H   0  0  0  0  0  0  0  0  0  0  0  0
   70.1187    8.8760    1.4006 H   0  0  0  0  0  0  0  0  0  0  0  0
   70.2228    9.0328    5.2963 H   0  0  0  0  0  0  0  0  0  0  0  0
   68.7998    8.0801    4.8040 H   0  0  0  0  0  0  0  0  0  0  0  0
   71.5462    8.2676    3.3393 H   0  0  0  0  0  0  0  0  0  0  0  0
   74.6413   -0.8732    5.2227 H   0  0  0  0  0  0  0  0  0  0  0  0
   75.0626    0.7316    5.8216 H   0  0  0  0  0  0  0  0  0  0  0  0
   71.0570    0.6665    6.7252 H   0  0  0  0  0  0  0  0  0  0  0  0
   70.0905    0.1920    5.2984 H   0  0  0  0  0  0  0  0  0  0  0  0
   72.3328    6.5867    4.4216 H   0  0  0  0  0  0  0  0  0  0  0  0
  1  2  1  0  0  0  0
  1  4  2  0  0  0  0
  2  5  2  0  0  0  0
  3 10  1  0  0  0  0
  3 11  2  0  0  0  0
  4 12  1  0  0  0  0
  5 13  1  0  0  0  0
  6  8  1  0  0  0  0
  6 14  2  0  0  0  0
  7  9  2  0  0  0  0
  7 14  1  0  0  0  0
  8 15  2  0  0  0  0
  9 15  1  0  0  0  0
 10 16  2  0  0  0  0
 11 32  1  0  0  0  0
 12 13  2  0  0  0  0
 12 25  1  0  0  0  0
 13 27  1  0  0  0  0
 14 28  1  0  0  0  0
 15 29  1  0  0  0  0
 16 23  1  0  0  0  0
 16 32  1  0  0  0  0
 17 22  1  0  0  0  0
 17 28  1  0  0  0  0
 17 30  2  0  0  0  0
 18 24  1  0  0  0  0
 18 29  1  0  0  0  0
 18 31  2  0  0  0  0
 19 20  1  0  0  0  0
 19 21  1  0  0  0  0
 20 22  1  0  0  0  0
 21 22  1  0  0  0  0
 23 29  1  0  0  0  0
 24 27  1  0  0  0  0
 25 26  2  0  0  0  0
 26 27  1  0  0  0  0
  1 33  1  0  0  0  0
  2 34  1  0  0  0  0
  3 35  1  0  0  0  0
  4 36  1  0  0  0  0
  5 37  1  0  0  0  0
  6 38  1  0  0  0  0
  7 39  1  0  0  0  0
  8 40  1  0  0  0  0
  9 41  1  0  0  0  0
 10 42  1  0  0  0  0
 11 43  1  0  0  0  0
 19 44  1  0  0  0  0
 19 45  1  0  0  0  0
 20 46  1  0  0  0  0
 20 47  1  0  0  0  0
 21 48  1  0  0  0  0
 21 49  1  0  0  0  0
 22 50  1  0  0  0  0
 23 51  1  0  0  0  0
 23 52  1  0  0  0  0
 24 53  1  0  0  0  0
 24 54  1  0  0  0  0
 28 55  1  0  0  0  0
M  END
> <FRED Chemgauss4 score>
-9.272304

$$$$
LIG_10
  -OEChem-05252000033D

 56 60  0     0  0  0  0  0  0999 V2000
   67.8369    4.5300    8.4011 C   0  0  0  0  0  0  0  0  0  0  0  0
   67.5615    5.2458    7.2360 C   0  0  0  0  0  0  0  0  0  0  0  0
   69.1518    4.4078    8.8502 C   0  0  0  0  0  0  0  0  0  0  0  0
   66.6830   -3.5837    6.0400 C   0  0  0  0  0  0  0  0  0  0  0  0
   66.8315   -2.6343    5.0242 C   0  0  0  0  0  0  0  0  0  0  0  0
   73.8023    2.1305    0.7408 C   0  0  0  0  0  0  0  0  0  0  0  0
   68.6011    5.8393    6.5200 C   0  0  0  0  0  0  0  0  0  0  0  0
   70.1914    5.0013    8.1342 C   0  0  0  0  0  0  0  0  0  0  0  0
   67.6333   -3.7040    7.0624 C   0  0  0  0  0  0  0  0  0  0  0  0
   67.9320   -1.7707    4.9906 C   0  0  0  0  0  0  0  0  0  0  0  0
   71.5328    3.7652    4.9573 C   0  0  0  0  0  0  0  0  0  0  0  0
   73.4476    3.5115    6.4086 C   0  0  0  0  0  0  0  0  0  0  0  0
   71.6857    2.4479    4.5253 C   0  0  0  0  0  0  0  0  0  0  0  0
   73.6005    2.1941    5.9766 C   0  0  0  0  0  0  0  0  0  0  0  0
   73.2679    1.3740    1.8235 C   0  0  0  0  0  0  0  0  0  0  0  0
   75.1797    2.1436    0.7489 C   0  0  0  0  0  0  0  0  0  0  0  0
   69.9160    5.7170    6.9690 C   0  0  0  0  0  0  0  0  0  0  0  0
   68.7412   -2.8442    7.0403 C   0  0  0  0  0  0  0  0  0  0  0  0
   68.8613   -1.9117    6.0190 C   0  0  0  0  0  0  0  0  0  0  0  0
   72.4138    4.2971    5.8990 C   0  0  0  0  0  0  0  0  0  0  0  0
   72.7195    1.6623    5.0349 C   0  0  0  0  0  0  0  0  0  0  0  0
   74.2574    0.8375    2.6179 C   0  0  0  0  0  0  0  0  0  0  0  0
   71.8516   -0.6599    4.7678 C   0  0  0  0  0  0  0  0  0  0  0  0
   71.0355    6.3553    6.1986 C   0  0  0  0  0  0  0  0  0  0  0  0
   74.1107   -0.0155    3.8447 C   0  0  0  0  0  0  0  0  0  0  0  0
   70.6604   -0.1954    5.5939 C   0  0  0  0  0  0  0  0  0  0  0  0
   69.8109   -2.7301    7.8884 N   0  0  0  0  0  0  0  0  0  0  0  0
   70.5954   -1.7592    7.4333 N   0  0  0  0  0  0  0  0  0  0  0  0
   70.0289   -1.2708    6.3175 N   0  0  0  0  0  0  0  0  0  0  0  0
   72.2605    5.6298    6.3345 N   0  0  0  0  0  0  0  0  0  0  0  0
   72.8782    0.2938    4.5861 N   0  0  0  0  0  0  0  0  0  0  0  0
   71.8797   -1.8158    4.3375 O   0  0  0  0  0  0  0  0  0  0  0  0
   75.8231    1.2464    2.0579 S   0  0  0  0  0  0  0  0  0  0  0  0
   67.0272    4.0692    8.9593 H   0  0  0  0  0  0  0  0  0  0  0  0
   66.5376    5.3420    6.8868 H   0  0  0  0  0  0  0  0  0  0  0  0
   69.3665    3.8516    9.7579 H   0  0  0  0  0  0  0  0  0  0  0  0
   65.8162   -4.2398    6.0372 H   0  0  0  0  0  0  0  0  0  0  0  0
   66.0770   -2.5652    4.2444 H   0  0  0  0  0  0  0  0  0  0  0  0
   73.2074    2.6387   -0.0068 H   0  0  0  0  0  0  0  0  0  0  0  0
   68.3771    6.3949    5.6131 H   0  0  0  0  0  0  0  0  0  0  0  0
   71.2128    4.9007    8.4916 H   0  0  0  0  0  0  0  0  0  0  0  0
   67.5098   -4.4436    7.8466 H   0  0  0  0  0  0  0  0  0  0  0  0
   68.0485   -1.0343    4.2040 H   0  0  0  0  0  0  0  0  0  0  0  0
   70.7243    4.3686    4.5527 H   0  0  0  0  0  0  0  0  0  0  0  0
   74.1399    3.9158    7.1427 H   0  0  0  0  0  0  0  0  0  0  0  0
   70.9942    2.0438    3.7901 H   0  0  0  0  0  0  0  0  0  0  0  0
   74.4099    1.5903    6.3790 H   0  0  0  0  0  0  0  0  0  0  0  0
   72.2100    1.2322    2.0053 H   0  0  0  0  0  0  0  0  0  0  0  0
   75.8390    2.6374    0.0490 H   0  0  0  0  0  0  0  0  0  0  0  0
   70.7903    6.4064    5.1322 H   0  0  0  0  0  0  0  0  0  0  0  0
   71.2137    7.3802    6.5408 H   0  0  0  0  0  0  0  0  0  0  0  0
   74.0853   -1.0772    3.5760 H   0  0  0  0  0  0  0  0  0  0  0  0
   74.9560    0.1274    4.5260 H   0  0  0  0  0  0  0  0  0  0  0  0
   70.9783    0.5493    6.3316 H   0  0  0  0  0  0  0  0  0  0  0  0
   69.8979    0.2427    4.9409 H   0  0  0  0  0  0  0  0  0  0  0  0
   73.0602    6.0658    6.7533 H   0  0  0  0  0  0  0  0  0  0  0  0
  1  2  2  0  0  0  0
  1  3  1  0  0  0  0
  2  7  1  0  0  0  0
  3  8  2  0  0  0  0
  4  5  1  0  0  0  0
  4  9  2  0  0  0  0
  5 10  2  0  0  0  0
  6 15  1  0  0  0  0
  6 16  2  0  0  0  0
  7 17  2  0  0  0  0
  8 17  1  0  0  0  0
  9 18  1  0  0  0  0
 10 19  1  0  0  0  0
 11 13  1  0  0  0  0
 11 20  2  0  0  0  0
 12 14  2  0  0  0  0
 12 20  1  0  0  0  0
 13 21  2  0  0  0  0
 14 21  1  0  0  0  0
 15 22  2  0  0  0  0
 16 33  1  0  0  0  0
 17 24  1  0  0  0  0
 18 19  2  0  0  0  0
 18 27  1  0  0  0  0
 19 29  1  0  0  0  0
 20 30  1  0  0  0  0
 21 31  1  0  0  0  0
 22 25  1  0  0  0  0
 22 33  1  0  0  0  0
 23 26  1  0  0  0  0
 23 31  1  0  0  0  0
 23 32  2  0  0  0  0
 24 30  1  0  0  0  0
 25 31  1  0  0  0  0
 26 29  1  0  0  0  0
 27 28  2  0  0  0  0
 28 29  1  0  0  0  0
  1 34  1  0  0  0  0
  2 35  1  0  0  0  0
  3 36  1  0  0  0  0
  4 37  1  0  0  0  0
  5 38  1  0  0  0  0
  6 39  1  0  0  0  0
  7 40  1  0  0  0  0
  8 41  1  0  0  0  0
  9 42  1  0  0  0  0
 10 43  1  0  0  0  0
 11 44  1  0  0  0  0
 12 45  1  0  0  0  0
 13 46  1  0  0  0  0
 14 47  1  0  0  0  0
 15 48  1  0  0  0  0
 16 49  1  0  0  0  0
 24 50  1  0  0  0  0
 24 51  1  0  0  0  0
 25 52  1  0  0  0  0
 25 53  1  0  0  0  0
 26 54  1  0  0  0  0
 26 55  1  0  0  0  0
 30 56  1  0  0  0  0
M  END
> <FRED Chemgauss4 score>
-9.828733

$$$$
LIG_07
  -OEChem-05252000033D

 61 65  0     0  0  0  0  0  0999 V2000
   67.2993   -3.3179    6.3548 C   0  0  0  0  0  0  0  0  0  0  0  0
   67.5097   -2.3413    5.3765 C   0  0  0  0  0  0  0  0  0  0  0  0
   72.8366   -1.4766    0.2318 C   0  0  0  0  0  0  0  0  0  0  0  0
   68.2662   -3.5814    7.3339 C   0  0  0  0  0  0  0  0  0  0  0  0
   68.6909   -1.5920    5.3386 C   0  0  0  0  0  0  0  0  0  0  0  0
   72.8816    3.5668    5.3734 C   0  0  0  0  0  0  0  0  0  0  0  0
   72.6101    3.4480    2.9757 C   0  0  0  0  0  0  0  0  0  0  0  0
   73.1777    2.2042    5.4074 C   0  0  0  0  0  0  0  0  0  0  0  0
   72.9063    2.0854    3.0096 C   0  0  0  0  0  0  0  0  0  0  0  0
   72.9011   -1.2406    1.6354 C   0  0  0  0  0  0  0  0  0  0  0  0
   74.0244   -1.1773   -0.3984 C   0  0  0  0  0  0  0  0  0  0  0  0
   69.4547   -2.8372    7.3069 C   0  0  0  0  0  0  0  0  0  0  0  0
   69.6351   -1.8743    6.3235 C   0  0  0  0  0  0  0  0  0  0  0  0
   72.5977    4.1887    4.1575 C   0  0  0  0  0  0  0  0  0  0  0  0
   73.1901    1.4635    4.2256 C   0  0  0  0  0  0  0  0  0  0  0  0
   74.1360   -0.7699    2.0247 C   0  0  0  0  0  0  0  0  0  0  0  0
   71.4742    6.2347    3.2216 C   0  0  0  0  0  0  0  0  0  0  0  0
   72.7050   -0.8551    5.0037 C   0  0  0  0  0  0  0  0  0  0  0  0
   68.6349    8.5376    4.1464 C   0  0  0  0  0  0  0  0  0  0  0  0
   69.0511    8.2411    2.7103 C   0  0  0  0  0  0  0  0  0  0  0  0
   69.4427    7.7135    5.1423 C   0  0  0  0  0  0  0  0  0  0  0  0
   70.5514    8.4418    2.4989 C   0  0  0  0  0  0  0  0  0  0  0  0
   70.9449    7.9266    4.9633 C   0  0  0  0  0  0  0  0  0  0  0  0
   71.4147    7.7040    3.5243 C   0  0  0  0  0  0  0  0  0  0  0  0
   74.6045   -0.4049    3.4036 C   0  0  0  0  0  0  0  0  0  0  0  0
   71.5960   -0.3129    5.8942 C   0  0  0  0  0  0  0  0  0  0  0  0
   70.5584   -2.8715    8.1176 N   0  0  0  0  0  0  0  0  0  0  0  0
   71.4222   -1.9640    7.6757 N   0  0  0  0  0  0  0  0  0  0  0  0
   70.8714   -1.3688    6.6048 N   0  0  0  0  0  0  0  0  0  0  0  0
   72.2969    5.5710    4.1229 N   0  0  0  0  0  0  0  0  0  0  0  0
   73.4863    0.1006    4.2592 N   0  0  0  0  0  0  0  0  0  0  0  0
   70.8438    5.7610    2.2819 O   0  0  0  0  0  0  0  0  0  0  0  0
   72.9165   -2.0700    4.9672 O   0  0  0  0  0  0  0  0  0  0  0  0
   75.2107   -0.6142    0.7006 S   0  0  0  0  0  0  0  0  0  0  0  0
   66.3704   -3.8826    6.3565 H   0  0  0  0  0  0  0  0  0  0  0  0
   66.7404   -2.1598    4.6299 H   0  0  0  0  0  0  0  0  0  0  0  0
   71.9641   -1.8479   -0.2898 H   0  0  0  0  0  0  0  0  0  0  0  0
   68.0942   -4.3412    8.0891 H   0  0  0  0  0  0  0  0  0  0  0  0
   68.8555   -0.8347    4.5810 H   0  0  0  0  0  0  0  0  0  0  0  0
   72.8749    4.1338    6.3008 H   0  0  0  0  0  0  0  0  0  0  0  0
   72.3907    3.9225    2.0226 H   0  0  0  0  0  0  0  0  0  0  0  0
   73.3969    1.7304    6.3610 H   0  0  0  0  0  0  0  0  0  0  0  0
   72.9123    1.5179    2.0828 H   0  0  0  0  0  0  0  0  0  0  0  0
   72.0807   -1.4105    2.3212 H   0  0  0  0  0  0  0  0  0  0  0  0
   74.2521   -1.2620   -1.4516 H   0  0  0  0  0  0  0  0  0  0  0  0
   68.7746    9.6053    4.3553 H   0  0  0  0  0  0  0  0  0  0  0  0
   67.5674    8.3246    4.2720 H   0  0  0  0  0  0  0  0  0  0  0  0
   68.7795    7.2089    2.4581 H   0  0  0  0  0  0  0  0  0  0  0  0
   68.4946    8.8899    2.0243 H   0  0  0  0  0  0  0  0  0  0  0  0
   69.1554    7.9901    6.1633 H   0  0  0  0  0  0  0  0  0  0  0  0
   69.1982    6.6513    5.0248 H   0  0  0  0  0  0  0  0  0  0  0  0
   70.8152    8.1309    1.4807 H   0  0  0  0  0  0  0  0  0  0  0  0
   70.7703    9.5153    2.5665 H   0  0  0  0  0  0  0  0  0  0  0  0
   71.1902    8.9550    5.2582 H   0  0  0  0  0  0  0  0  0  0  0  0
   71.4865    7.2635    5.6488 H   0  0  0  0  0  0  0  0  0  0  0  0
   72.4478    8.0641    3.4391 H   0  0  0  0  0  0  0  0  0  0  0  0
   75.0459   -1.2737    3.9040 H   0  0  0  0  0  0  0  0  0  0  0  0
   75.3739    0.3734    3.3640 H   0  0  0  0  0  0  0  0  0  0  0  0
   72.0129    0.3603    6.6510 H   0  0  0  0  0  0  0  0  0  0  0  0
   70.8607    0.2300    5.2907 H   0  0  0  0  0  0  0  0  0  0  0  0
   72.7400    6.1319    4.8476 H   0  0  0  0  0  0  0  0  0  0  0  0
  1  2  1  0  0  0  0
  1  4  2  0  0  0  0
  2  5  2  0  0  0  0
  3 10  1  0  0  0  0
  3 11  2  0  0  0  0
  4 12  1  0  0  0  0
  5 13  1  0  0  0  0
  6  8  1  0  0  0  0
  6 14  2  0  0  0  0
  7  9  2  0  0  0  0
  7 14  1  0  0  0  0
  8 15  2  0  0  0  0
  9 15  1  0  0  0  0
 10 16  2  0  0  0  0
 11 34  1  0  0  0  0
 12 13  2  0  0  0  0
 12 27  1  0  0  0  0
 13 29  1  0  0  0  0
 14 30  1  0  0  0  0
 15 31  1  0  0  0  0
 16 25  1  0  0  0  0
 16 34  1  0  0  0  0
 17 24  1  0  0  0  0
 17 30  1  0  0  0  0
 17 32  2  0  0  0  0
 18 26  1  0  0  0  0
 18 31  1  0  0  0  0
 18 33  2  0  0  0  0
 19 20  1  0  0  0  0
 19 21  1  0  0  0  0
 20 22  1  0  0  0  0
 21 23  1  0  0  0  0
 22 24  1  0  0  0  0
 23 24  1  0  0  0  0
 25 31  1  0  0  0  0
 26 29  1  0  0  0  0
 27 28  2  0  0  0  0
 28 29  1  0  0  0  0
  1 35  1  0  0  0  0
  2 36  1  0  0  0  0
  3 37  1  0  0  0  0
  4 38  1  0  0  0  0
  5 39  1  0  0  0  0
  6 40  1  0  0  0  0
  7 41  1  0  0  0  0
  8 42  1  0  0  0  0
  9 43  1  0  0  0  0
 10 44  1  0  0  0  0
 11 45  1  0  0  0  0
 19 46  1  0  0  0  0
 19 47  1  0  0  0  0
 20 48  1  0  0  0  0
 20 49  1  0  0  0  0
 21 50  1  0  0  0  0
 21 51  1  0  0  0  0
 22 52  1  0  0  0  0
 22 53  1  0  0  0  0
 23 54  1  0  0  0  0
 23 55  1  0  0  0  0
 24 56  1  0  0  0  0
 25 57  1  0  0  0  0
 25 58  1  0  0  0  0
 26 59  1  0  0  0  0
 26 60  1  0  0  0  0
 30 61  1  0  0  0  0
M  END
> <FRED Chemgauss4 score>
-8.577894

$$$$
