EN300-60314-neutral-primary_aminebackwards
  PyMOL2.3          3D                             0

 47 49  0  0  0  0  0  0  0  0999 V2000
   40.7827   52.8977   62.2776 C   0  0  0  0  0  0  0  0  0  0  0  0
   42.6869   52.4881   60.8221 N   0  0  0  0  0  0  0  0  0  0  0  0
   45.7388   53.6520   63.6387 O   0  0  0  0  0  0  0  0  0  0  0  0
   47.7563   53.8254   65.8821 C   0  0  0  0  0  0  0  0  0  0  0  0
   43.7406   52.6692   64.3709 N   0  0  0  0  0  0  0  0  0  0  0  0
   51.0045   57.8246   66.1366 O   0  0  0  0  0  0  0  0  0  0  0  0
   48.3600   51.5621   65.1977 C   0  0  0  0  0  0  0  0  0  0  0  0
   49.5306   55.5022   66.2341 N   0  0  0  0  0  0  0  0  0  0  0  0
   50.0188   53.1900   65.7742 C   0  0  0  0  0  0  0  0  0  0  0  0
   41.3581   52.6590   60.9826 C   0  0  0  0  0  0  0  0  0  0  0  0
   43.4263   52.5284   61.9778 C   0  0  0  0  0  0  0  0  0  0  0  0
   41.5772   52.9783   63.3849 C   0  0  0  0  0  0  0  0  0  0  0  0
   47.3699   52.4645   65.5277 C   0  0  0  0  0  0  0  0  0  0  0  0
   49.0636   54.2033   66.0068 C   0  0  0  0  0  0  0  0  0  0  0  0
   42.8840   52.6480   63.2198 C   0  0  0  0  0  0  0  0  0  0  0  0
   49.7027   51.9527   65.3670 C   0  0  0  0  0  0  0  0  0  0  0  0
   45.1048   52.9273   64.4194 C   0  0  0  0  0  0  0  0  0  0  0  0
   48.0944   58.3769   64.3979 C   0  0  0  0  0  0  0  0  0  0  0  0
   48.3536   56.8990   64.5153 C   0  0  0  0  0  0  0  0  0  0  0  0
   49.0131   59.1117   65.4653 C   0  0  0  0  0  0  0  0  0  0  0  0
   48.7728   56.7139   65.9846 C   0  0  0  0  0  0  0  0  0  0  0  0
   49.5865   57.9983   66.3177 C   0  0  0  0  0  0  0  0  0  0  0  0
   41.0035   53.3629   64.7246 C   0  0  0  0  0  0  0  0  0  0  0  0
   45.8701   52.1234   65.4377 C   0  0  0  0  0  0  0  0  0  0  0  0
   51.0044   50.7561   65.1760 Cl  0  0  0  0  0  0  0  0  0  0  0  0
   39.7851   53.2964   62.4425 H   0  0  0  0  0  0  0  0  0  0  0  0
   47.0302   54.5974   66.1024 H   0  0  0  0  0  0  0  0  0  0  0  0
   48.0633   50.5743   64.8590 H   0  0  0  0  0  0  0  0  0  0  0  0
   51.0595   53.4051   65.9413 H   0  0  0  0  0  0  0  0  0  0  0  0
   40.6899   52.4615   60.1470 H   0  0  0  0  0  0  0  0  0  0  0  0
   44.4922   52.3750   61.8797 H   0  0  0  0  0  0  0  0  0  0  0  0
   48.4344   58.7130   63.4181 H   0  0  0  0  0  0  0  0  0  0  0  0
   47.0227   58.5175   64.5984 H   0  0  0  0  0  0  0  0  0  0  0  0
   47.5630   56.2198   64.1872 H   0  0  0  0  0  0  0  0  0  0  0  0
   49.2856   56.7489   63.9641 H   0  0  0  0  0  0  0  0  0  0  0  0
   49.7834   59.6583   64.9209 H   0  0  0  0  0  0  0  0  0  0  0  0
   48.4734   59.7705   66.1485 H   0  0  0  0  0  0  0  0  0  0  0  0
   47.9062   56.7648   66.6580 H   0  0  0  0  0  0  0  0  0  0  0  0
   49.4082   58.2335   67.3636 H   0  0  0  0  0  0  0  0  0  0  0  0
   39.9082   53.4250   64.6701 H   0  0  0  0  0  0  0  0  0  0  0  0
   41.2891   52.6533   65.5068 H   0  0  0  0  0  0  0  0  0  0  0  0
   41.4080   54.2872   65.1416 H   0  0  0  0  0  0  0  0  0  0  0  0
   45.7510   51.0671   65.1883 H   0  0  0  0  0  0  0  0  0  0  0  0
   45.5132   52.1956   66.4608 H   0  0  0  0  0  0  0  0  0  0  0  0
   43.3353   52.1720   65.1590 H   0  0  0  0  0  0  0  0  0  0  0  0
   50.5397   55.6119   66.3375 H   0  0  0  0  0  0  0  0  0  0  0  0
   51.4155   58.6884   66.2897 H   0  0  0  0  0  0  0  0  0  0  0  0
  1 10  1  0  0  0  0
  1 12  1  0  0  0  0
  1 26  1  0  0  0  0
  4 13  1  0  0  0  0
  4 14  1  0  0  0  0
  4 27  1  0  0  0  0
  5 45  1  0  0  0  0
  6 47  1  0  0  0  0
  7 13  1  0  0  0  0
  7 16  1  0  0  0  0
  7 28  1  0  0  0  0
  8 46  1  0  0  0  0
  9 14  1  0  0  0  0
  9 16  1  0  0  0  0
  9 29  1  0  0  0  0
  2 10  1  0  0  0  0
 10 30  1  0  0  0  0
  2 11  1  0  0  0  0
 11 15  1  0  0  0  0
 11 31  1  0  0  0  0
 12 15  1  0  0  0  0
 12 23  1  0  0  0  0
 13 24  1  0  0  0  0
  8 14  1  0  0  0  0
  5 15  1  0  0  0  0
 16 25  1  0  0  0  0
  3 17  1  0  0  0  0
  5 17  1  0  0  0  0
 17 24  1  0  0  0  0
 18 19  1  0  0  0  0
 18 20  1  0  0  0  0
 18 32  1  0  0  0  0
 18 33  1  0  0  0  0
 19 21  1  0  0  0  0
 19 34  1  0  0  0  0
 19 35  1  0  0  0  0
 20 22  1  0  0  0  0
 20 36  1  0  0  0  0
 20 37  1  0  0  0  0
  8 21  1  0  0  0  0
 21 22  1  0  0  0  0
 21 38  1  0  0  0  0
  6 22  1  0  0  0  0
 22 39  1  0  0  0  0
 23 40  1  0  0  0  0
 23 41  1  0  0  0  0
 23 42  1  0  0  0  0
 24 43  1  0  0  0  0
 24 44  1  0  0  0  0
M  END
>  <pdb_header>
REMARK   1 CREATED WITH MDTraj 1.9.4, 2020-08-14
CRYST1   96.825   96.825   96.825  90.00  90.00  90.00 P 1           1 


$$$$
EN300-59553-neutral-primary_aminebackwards
  PyMOL2.3          3D                             0

 47 49  0  0  0  0  0  0  0  0999 V2000
   40.8426   53.5521   61.7365 C   0  0  0  0  0  0  0  0  0  0  0  0
   42.8784   52.6545   60.7288 N   0  0  0  0  0  0  0  0  0  0  0  0
   45.5909   54.2368   63.4075 O   0  0  0  0  0  0  0  0  0  0  0  0
   47.7561   54.9393   65.6687 C   0  0  0  0  0  0  0  0  0  0  0  0
   43.6215   53.6147   64.2659 N   0  0  0  0  0  0  0  0  0  0  0  0
   51.0682   58.9114   66.1167 O   0  0  0  0  0  0  0  0  0  0  0  0
   48.0818   52.6736   65.7053 C   0  0  0  0  0  0  0  0  0  0  0  0
   49.6101   56.5398   66.0201 N   0  0  0  0  0  0  0  0  0  0  0  0
   49.9699   54.0959   65.7839 C   0  0  0  0  0  0  0  0  0  0  0  0
   41.5801   52.9628   60.6810 C   0  0  0  0  0  0  0  0  0  0  0  0
   43.4963   52.8812   61.8977 C   0  0  0  0  0  0  0  0  0  0  0  0
   41.5579   53.7832   62.9964 C   0  0  0  0  0  0  0  0  0  0  0  0
   47.2116   53.6887   65.6440 C   0  0  0  0  0  0  0  0  0  0  0  0
   49.1130   55.2427   65.8152 C   0  0  0  0  0  0  0  0  0  0  0  0
   42.9004   53.3994   63.0653 C   0  0  0  0  0  0  0  0  0  0  0  0
   49.4594   52.8311   65.6753 C   0  0  0  0  0  0  0  0  0  0  0  0
   45.0387   53.7476   64.3441 C   0  0  0  0  0  0  0  0  0  0  0  0
   49.1582   59.0603   63.3664 C   0  0  0  0  0  0  0  0  0  0  0  0
   49.3771   57.6211   63.7774 C   0  0  0  0  0  0  0  0  0  0  0  0
   49.4161   59.9073   64.5468 C   0  0  0  0  0  0  0  0  0  0  0  0
   49.0222   57.7280   65.2859 C   0  0  0  0  0  0  0  0  0  0  0  0
   49.6528   58.9976   65.7710 C   0  0  0  0  0  0  0  0  0  0  0  0
   40.8056   54.4362   64.1447 C   0  0  0  0  0  0  0  0  0  0  0  0
   45.7868   53.4270   65.6703 C   0  0  0  0  0  0  0  0  0  0  0  0
   50.5057   51.4786   65.6720 Cl  0  0  0  0  0  0  0  0  0  0  0  0
   39.8045   53.8637   61.6813 H   0  0  0  0  0  0  0  0  0  0  0  0
   47.0569   55.7691   65.5387 H   0  0  0  0  0  0  0  0  0  0  0  0
   47.7662   51.6475   65.8709 H   0  0  0  0  0  0  0  0  0  0  0  0
   51.0510   54.1287   65.8863 H   0  0  0  0  0  0  0  0  0  0  0  0
   41.0374   52.6487   59.7908 H   0  0  0  0  0  0  0  0  0  0  0  0
   44.5568   52.6660   61.8956 H   0  0  0  0  0  0  0  0  0  0  0  0
   49.9026   59.2990   62.5998 H   0  0  0  0  0  0  0  0  0  0  0  0
   48.1406   59.2345   63.0092 H   0  0  0  0  0  0  0  0  0  0  0  0
   48.7423   56.9222   63.2153 H   0  0  0  0  0  0  0  0  0  0  0  0
   50.4191   57.3817   63.5337 H   0  0  0  0  0  0  0  0  0  0  0  0
   50.3816   60.4104   64.3942 H   0  0  0  0  0  0  0  0  0  0  0  0
   48.5553   60.5746   64.5911 H   0  0  0  0  0  0  0  0  0  0  0  0
   47.9336   57.7696   65.3704 H   0  0  0  0  0  0  0  0  0  0  0  0
   49.1905   59.3938   66.6773 H   0  0  0  0  0  0  0  0  0  0  0  0
   39.7570   54.2439   63.8823 H   0  0  0  0  0  0  0  0  0  0  0  0
   41.0859   53.9181   65.0628 H   0  0  0  0  0  0  0  0  0  0  0  0
   41.0270   55.5018   64.1989 H   0  0  0  0  0  0  0  0  0  0  0  0
   45.5792   52.3832   65.9253 H   0  0  0  0  0  0  0  0  0  0  0  0
   45.2918   54.0787   66.3938 H   0  0  0  0  0  0  0  0  0  0  0  0
   43.0492   53.5218   65.1082 H   0  0  0  0  0  0  0  0  0  0  0  0
   50.5589   56.6366   66.3775 H   0  0  0  0  0  0  0  0  0  0  0  0
   51.4566   59.8069   66.1838 H   0  0  0  0  0  0  0  0  0  0  0  0
  1 10  1  0  0  0  0
  1 12  1  0  0  0  0
  1 26  1  0  0  0  0
  4 13  1  0  0  0  0
  4 14  1  0  0  0  0
  4 27  1  0  0  0  0
  5 45  1  0  0  0  0
  6 47  1  0  0  0  0
  7 13  1  0  0  0  0
  7 16  1  0  0  0  0
  7 28  1  0  0  0  0
  8 46  1  0  0  0  0
  9 14  1  0  0  0  0
  9 16  1  0  0  0  0
  9 29  1  0  0  0  0
  2 10  1  0  0  0  0
 10 30  1  0  0  0  0
  2 11  1  0  0  0  0
 11 15  1  0  0  0  0
 11 31  1  0  0  0  0
 12 15  1  0  0  0  0
 12 23  1  0  0  0  0
 13 24  1  0  0  0  0
  8 14  1  0  0  0  0
  5 15  1  0  0  0  0
 16 25  1  0  0  0  0
  3 17  1  0  0  0  0
  5 17  1  0  0  0  0
 17 24  1  0  0  0  0
 18 19  1  0  0  0  0
 18 20  1  0  0  0  0
 18 32  1  0  0  0  0
 18 33  1  0  0  0  0
 19 21  1  0  0  0  0
 19 34  1  0  0  0  0
 19 35  1  0  0  0  0
 20 22  1  0  0  0  0
 20 36  1  0  0  0  0
 20 37  1  0  0  0  0
  8 21  1  0  0  0  0
 21 22  1  0  0  0  0
 21 38  1  0  0  0  0
  6 22  1  0  0  0  0
 22 39  1  0  0  0  0
 23 40  1  0  0  0  0
 23 41  1  0  0  0  0
 23 42  1  0  0  0  0
 24 43  1  0  0  0  0
 24 44  1  0  0  0  0
M  END
>  <pdb_header>
REMARK   1 CREATED WITH MDTraj 1.9.4, 2020-08-14
CRYST1   96.942   96.942   96.942  90.00  90.00  90.00 P 1           1 


$$$$
EN300-6734624-neutral-primary_aminebackwards
  PyMOL2.3          3D                             0

 47 49  0  0  0  0  0  0  0  0999 V2000
   41.3277   53.1966   62.2059 C   0  0  0  0  0  0  0  0  0  0  0  0
   43.1693   52.2219   61.0143 N   0  0  0  0  0  0  0  0  0  0  0  0
   46.0788   53.2930   63.7328 O   0  0  0  0  0  0  0  0  0  0  0  0
   48.0934   54.6014   66.1576 C   0  0  0  0  0  0  0  0  0  0  0  0
   44.1314   52.5036   64.5948 N   0  0  0  0  0  0  0  0  0  0  0  0
   51.4723   58.7592   66.2121 O   0  0  0  0  0  0  0  0  0  0  0  0
   48.4917   52.3578   65.3422 C   0  0  0  0  0  0  0  0  0  0  0  0
   50.0108   56.2320   66.4960 N   0  0  0  0  0  0  0  0  0  0  0  0
   50.3514   53.9744   65.5454 C   0  0  0  0  0  0  0  0  0  0  0  0
   41.9464   52.7541   61.0520 C   0  0  0  0  0  0  0  0  0  0  0  0
   43.7716   52.1398   62.2281 C   0  0  0  0  0  0  0  0  0  0  0  0
   41.9675   53.0793   63.4355 C   0  0  0  0  0  0  0  0  0  0  0  0
   47.6233   53.3013   65.9000 C   0  0  0  0  0  0  0  0  0  0  0  0
   49.4801   54.9738   66.0128 C   0  0  0  0  0  0  0  0  0  0  0  0
   43.2698   52.5403   63.4408 C   0  0  0  0  0  0  0  0  0  0  0  0
   49.8494   52.6968   65.1666 C   0  0  0  0  0  0  0  0  0  0  0  0
   45.4458   52.9710   64.7402 C   0  0  0  0  0  0  0  0  0  0  0  0
   49.6372   57.4253   64.3701 C   0  0  0  0  0  0  0  0  0  0  0  0
   49.4693   58.9211   64.0720 C   0  0  0  0  0  0  0  0  0  0  0  0
   49.4132   57.3968   65.8340 C   0  0  0  0  0  0  0  0  0  0  0  0
   50.0238   58.7169   66.3795 C   0  0  0  0  0  0  0  0  0  0  0  0
   49.3557   59.6912   65.3827 C   0  0  0  0  0  0  0  0  0  0  0  0
   41.3749   53.6513   64.6455 C   0  0  0  0  0  0  0  0  0  0  0  0
   46.1257   52.9360   66.1158 C   0  0  0  0  0  0  0  0  0  0  0  0
   50.9477   51.5010   64.4607 Cl  0  0  0  0  0  0  0  0  0  0  0  0
   48.0562   59.9579   65.6891 F   0  0  0  0  0  0  0  0  0  0  0  0
   50.0031   60.8698   65.1985 F   0  0  0  0  0  0  0  0  0  0  0  0
   40.3663   53.6880   62.1126 H   0  0  0  0  0  0  0  0  0  0  0  0
   47.3791   55.3487   66.4673 H   0  0  0  0  0  0  0  0  0  0  0  0
   48.0590   51.3980   65.0838 H   0  0  0  0  0  0  0  0  0  0  0  0
   51.4031   54.2422   65.5536 H   0  0  0  0  0  0  0  0  0  0  0  0
   41.5236   52.9404   60.0630 H   0  0  0  0  0  0  0  0  0  0  0  0
   44.7675   51.7076   62.1046 H   0  0  0  0  0  0  0  0  0  0  0  0
   48.8386   56.8688   63.8607 H   0  0  0  0  0  0  0  0  0  0  0  0
   50.6139   57.0108   64.1220 H   0  0  0  0  0  0  0  0  0  0  0  0
   50.2890   59.3711   63.4843 H   0  0  0  0  0  0  0  0  0  0  0  0
   48.5685   59.0585   63.4665 H   0  0  0  0  0  0  0  0  0  0  0  0
   48.3447   57.4234   66.0364 H   0  0  0  0  0  0  0  0  0  0  0  0
   49.6835   58.8806   67.4005 H   0  0  0  0  0  0  0  0  0  0  0  0
   41.1337   52.9491   65.4481 H   0  0  0  0  0  0  0  0  0  0  0  0
   42.0985   54.3552   65.0725 H   0  0  0  0  0  0  0  0  0  0  0  0
   40.4098   54.1076   64.4443 H   0  0  0  0  0  0  0  0  0  0  0  0
   46.1908   51.9035   66.4706 H   0  0  0  0  0  0  0  0  0  0  0  0
   45.5955   53.6937   66.7149 H   0  0  0  0  0  0  0  0  0  0  0  0
   43.7040   52.3957   65.5079 H   0  0  0  0  0  0  0  0  0  0  0  0
   50.9875   56.3458   66.7644 H   0  0  0  0  0  0  0  0  0  0  0  0
   51.8254   59.6633   66.3135 H   0  0  0  0  0  0  0  0  0  0  0  0
  1 10  1  0  0  0  0
  1 12  1  0  0  0  0
  1 28  1  0  0  0  0
  4 13  1  0  0  0  0
  4 14  1  0  0  0  0
  4 29  1  0  0  0  0
  5 45  1  0  0  0  0
  6 47  1  0  0  0  0
  7 13  1  0  0  0  0
  7 16  1  0  0  0  0
  7 30  1  0  0  0  0
  8 46  1  0  0  0  0
  9 14  1  0  0  0  0
  9 16  1  0  0  0  0
  9 31  1  0  0  0  0
  2 10  1  0  0  0  0
 10 32  1  0  0  0  0
  2 11  1  0  0  0  0
 11 15  1  0  0  0  0
 11 33  1  0  0  0  0
 12 15  1  0  0  0  0
 12 23  1  0  0  0  0
 13 24  1  0  0  0  0
  8 14  1  0  0  0  0
  5 15  1  0  0  0  0
 16 25  1  0  0  0  0
  3 17  1  0  0  0  0
  5 17  1  0  0  0  0
 17 24  1  0  0  0  0
 18 19  1  0  0  0  0
 18 20  1  0  0  0  0
 18 34  1  0  0  0  0
 18 35  1  0  0  0  0
 19 22  1  0  0  0  0
 19 36  1  0  0  0  0
 19 37  1  0  0  0  0
  8 20  1  0  0  0  0
 20 21  1  0  0  0  0
 20 38  1  0  0  0  0
  6 21  1  0  0  0  0
 21 22  1  0  0  0  0
 21 39  1  0  0  0  0
 22 26  1  0  0  0  0
 22 27  1  0  0  0  0
 23 40  1  0  0  0  0
 23 41  1  0  0  0  0
 23 42  1  0  0  0  0
 24 43  1  0  0  0  0
 24 44  1  0  0  0  0
M  END
>  <pdb_header>
REMARK   1 CREATED WITH MDTraj 1.9.4, 2020-08-14
CRYST1   96.890   96.890   96.890  90.00  90.00  90.00 P 1           1 


$$$$
EN300-1723947-neutral-primary_aminebackwards
  PyMOL2.3          3D                             0

 46 48  0  0  0  0  0  0  0  0999 V2000
   41.9667   54.3623   61.4642 C   0  0  0  0  0  0  0  0  0  0  0  0
   43.9154   53.1778   60.9711 N   0  0  0  0  0  0  0  0  0  0  0  0
   44.7892   51.7483   64.7804 O   0  0  0  0  0  0  0  0  0  0  0  0
   46.5519   55.2769   65.5974 C   0  0  0  0  0  0  0  0  0  0  0  0
   43.6963   53.7059   64.6074 N   0  0  0  0  0  0  0  0  0  0  0  0
   47.8451   53.2805   66.2674 C   0  0  0  0  0  0  0  0  0  0  0  0
   47.7672   57.1891   64.4589 N   0  0  0  0  0  0  0  0  0  0  0  0
   48.9246   55.1208   65.1926 C   0  0  0  0  0  0  0  0  0  0  0  0
   42.7197   53.6937   60.5775 C   0  0  0  0  0  0  0  0  0  0  0  0
   44.1647   53.1462   62.3274 C   0  0  0  0  0  0  0  0  0  0  0  0
   42.2523   54.3785   62.8345 C   0  0  0  0  0  0  0  0  0  0  0  0
   46.5966   53.9689   66.0891 C   0  0  0  0  0  0  0  0  0  0  0  0
   47.7095   55.8613   65.0863 C   0  0  0  0  0  0  0  0  0  0  0  0
   43.3791   53.7185   63.2713 C   0  0  0  0  0  0  0  0  0  0  0  0
   49.0111   53.8088   65.7470 C   0  0  0  0  0  0  0  0  0  0  0  0
   44.5679   52.8445   65.2769 C   0  0  0  0  0  0  0  0  0  0  0  0
   46.7777   59.3507   63.7784 C   0  0  0  0  0  0  0  0  0  0  0  0
   46.1184   58.9138   65.1306 C   0  0  0  0  0  0  0  0  0  0  0  0
   46.5385   57.9249   64.1300 C   0  0  0  0  0  0  0  0  0  0  0  0
   41.2453   55.0801   63.7334 C   0  0  0  0  0  0  0  0  0  0  0  0
   45.3138   53.3226   66.5365 C   0  0  0  0  0  0  0  0  0  0  0  0
   46.0355   60.1980   62.7808 C   0  0  0  0  0  0  0  0  0  0  0  0
   44.5828   58.9670   65.4961 C   0  0  0  0  0  0  0  0  0  0  0  0
   50.4409   52.9259   65.9179 Cl  0  0  0  0  0  0  0  0  0  0  0  0
   45.0971   59.5882   62.0928 F   0  0  0  0  0  0  0  0  0  0  0  0
   45.4761   61.2203   63.4394 F   0  0  0  0  0  0  0  0  0  0  0  0
   46.8194   60.7401   61.7716 F   0  0  0  0  0  0  0  0  0  0  0  0
   43.8438   58.4225   64.4191 F   0  0  0  0  0  0  0  0  0  0  0  0
   44.4517   58.0828   66.4829 F   0  0  0  0  0  0  0  0  0  0  0  0
   44.2750   60.2051   65.8744 F   0  0  0  0  0  0  0  0  0  0  0  0
   41.0401   54.7683   61.0530 H   0  0  0  0  0  0  0  0  0  0  0  0
   45.5819   55.7813   65.5899 H   0  0  0  0  0  0  0  0  0  0  0  0
   47.8306   52.2284   66.5580 H   0  0  0  0  0  0  0  0  0  0  0  0
   49.7823   55.5893   64.7213 H   0  0  0  0  0  0  0  0  0  0  0  0
   42.4109   53.6891   59.5393 H   0  0  0  0  0  0  0  0  0  0  0  0
   45.0895   52.7173   62.6921 H   0  0  0  0  0  0  0  0  0  0  0  0
   47.7800   59.7809   63.9130 H   0  0  0  0  0  0  0  0  0  0  0  0
   46.7608   59.0056   66.0088 H   0  0  0  0  0  0  0  0  0  0  0  0
   45.8043   57.3583   63.5508 H   0  0  0  0  0  0  0  0  0  0  0  0
   40.4558   55.4727   63.0941 H   0  0  0  0  0  0  0  0  0  0  0  0
   40.7812   54.3929   64.4528 H   0  0  0  0  0  0  0  0  0  0  0  0
   41.8034   55.7915   64.3549 H   0  0  0  0  0  0  0  0  0  0  0  0
   45.5348   52.3975   67.0845 H   0  0  0  0  0  0  0  0  0  0  0  0
   44.6704   53.9355   67.1678 H   0  0  0  0  0  0  0  0  0  0  0  0
   43.3695   54.4805   65.1843 H   0  0  0  0  0  0  0  0  0  0  0  0
   48.6411   57.6936   64.5229 H   0  0  0  0  0  0  0  0  0  0  0  0
  1  9  1  0  0  0  0
  1 11  1  0  0  0  0
  1 31  1  0  0  0  0
  4 12  1  0  0  0  0
  4 13  1  0  0  0  0
  4 32  1  0  0  0  0
  5 45  1  0  0  0  0
  6 12  1  0  0  0  0
  6 15  1  0  0  0  0
  6 33  1  0  0  0  0
  7 46  1  0  0  0  0
  8 13  1  0  0  0  0
  8 15  1  0  0  0  0
  8 34  1  0  0  0  0
  2  9  1  0  0  0  0
  9 35  1  0  0  0  0
  2 10  1  0  0  0  0
 10 14  1  0  0  0  0
 10 36  1  0  0  0  0
 11 14  1  0  0  0  0
 11 20  1  0  0  0  0
 12 21  1  0  0  0  0
  7 13  1  0  0  0  0
  5 14  1  0  0  0  0
 15 24  1  0  0  0  0
  3 16  1  0  0  0  0
  5 16  1  0  0  0  0
 16 21  1  0  0  0  0
 17 18  1  0  0  0  0
 17 19  1  0  0  0  0
 17 22  1  0  0  0  0
 17 37  1  0  0  0  0
 18 19  1  0  0  0  0
 18 23  1  0  0  0  0
 18 38  1  0  0  0  0
  7 19  1  0  0  0  0
 19 39  1  0  0  0  0
 20 40  1  0  0  0  0
 20 41  1  0  0  0  0
 20 42  1  0  0  0  0
 21 43  1  0  0  0  0
 21 44  1  0  0  0  0
 22 25  1  0  0  0  0
 22 26  1  0  0  0  0
 22 27  1  0  0  0  0
 23 28  1  0  0  0  0
 23 29  1  0  0  0  0
 23 30  1  0  0  0  0
M  END
>  <pdb_header>
REMARK   1 CREATED WITH MDTraj 1.9.4, 2020-08-14
CRYST1   96.901   96.901   96.901  90.00  90.00  90.00 P 1           1 


$$$$
EN300-7434265-neutral-primary_aminebackwards
  PyMOL2.3          3D                             0

 50 53  0  0  0  0  0  0  0  0999 V2000
   41.2133   52.9098   62.3184 C   0  0  0  0  0  0  0  0  0  0  0  0
   43.0717   52.0738   61.0320 N   0  0  0  0  0  0  0  0  0  0  0  0
   45.5984   50.5904   63.8868 O   0  0  0  0  0  0  0  0  0  0  0  0
   46.7375   53.4931   66.4809 C   0  0  0  0  0  0  0  0  0  0  0  0
   43.9783   51.9088   64.6006 N   0  0  0  0  0  0  0  0  0  0  0  0
   48.1839   51.6760   65.8124 C   0  0  0  0  0  0  0  0  0  0  0  0
   47.4593   55.7097   66.5574 N   0  0  0  0  0  0  0  0  0  0  0  0
   49.0957   53.8951   66.2078 C   0  0  0  0  0  0  0  0  0  0  0  0
   41.8687   52.6598   61.0871 C   0  0  0  0  0  0  0  0  0  0  0  0
   43.7446   51.8373   62.1083 C   0  0  0  0  0  0  0  0  0  0  0  0
   41.9106   52.6789   63.4770 C   0  0  0  0  0  0  0  0  0  0  0  0
   46.9177   52.1299   66.1297 C   0  0  0  0  0  0  0  0  0  0  0  0
   47.7695   54.3708   66.4114 C   0  0  0  0  0  0  0  0  0  0  0  0
   43.2452   52.2077   63.4176 C   0  0  0  0  0  0  0  0  0  0  0  0
   49.2968   52.5531   65.8769 C   0  0  0  0  0  0  0  0  0  0  0  0
   45.1075   51.1697   64.8014 C   0  0  0  0  0  0  0  0  0  0  0  0
   49.1841   59.9228   64.9515 C   0  0  0  0  0  0  0  0  0  0  0  0
   47.9840   59.3741   65.8008 C   0  0  0  0  0  0  0  0  0  0  0  0
   50.3754   58.9322   64.9868 C   0  0  0  0  0  0  0  0  0  0  0  0
   47.5904   57.9176   65.3845 C   0  0  0  0  0  0  0  0  0  0  0  0
   48.6851   57.0694   64.6660 C   0  0  0  0  0  0  0  0  0  0  0  0
   48.3485   56.8733   66.1537 C   0  0  0  0  0  0  0  0  0  0  0  0
   50.0741   57.5447   64.5166 C   0  0  0  0  0  0  0  0  0  0  0  0
   41.2600   53.0514   64.7970 C   0  0  0  0  0  0  0  0  0  0  0  0
   45.7119   51.1762   66.1770 C   0  0  0  0  0  0  0  0  0  0  0  0
   50.9118   52.0408   65.4830 Cl  0  0  0  0  0  0  0  0  0  0  0  0
   50.2653   57.5463   63.1800 F   0  0  0  0  0  0  0  0  0  0  0  0
   50.9268   56.5653   64.9580 F   0  0  0  0  0  0  0  0  0  0  0  0
   40.1798   53.2520   62.3797 H   0  0  0  0  0  0  0  0  0  0  0  0
   45.7903   53.9920   66.6640 H   0  0  0  0  0  0  0  0  0  0  0  0
   48.3604   50.6288   65.5976 H   0  0  0  0  0  0  0  0  0  0  0  0
   49.9416   54.5643   66.1834 H   0  0  0  0  0  0  0  0  0  0  0  0
   41.2460   52.9162   60.2387 H   0  0  0  0  0  0  0  0  0  0  0  0
   44.7268   51.4738   61.8413 H   0  0  0  0  0  0  0  0  0  0  0  0
   48.9076   60.0012   63.8932 H   0  0  0  0  0  0  0  0  0  0  0  0
   49.4864   60.8816   65.3812 H   0  0  0  0  0  0  0  0  0  0  0  0
   48.2962   59.3572   66.8466 H   0  0  0  0  0  0  0  0  0  0  0  0
   47.1530   60.0555   65.5748 H   0  0  0  0  0  0  0  0  0  0  0  0
   51.2090   59.3727   64.4359 H   0  0  0  0  0  0  0  0  0  0  0  0
   50.6611   58.7774   66.0317 H   0  0  0  0  0  0  0  0  0  0  0  0
   46.5367   57.7203   65.1640 H   0  0  0  0  0  0  0  0  0  0  0  0
   48.3673   56.3556   63.8876 H   0  0  0  0  0  0  0  0  0  0  0  0
   49.0694   57.3080   66.8531 H   0  0  0  0  0  0  0  0  0  0  0  0
   40.4982   53.8256   64.6342 H   0  0  0  0  0  0  0  0  0  0  0  0
   40.7067   52.2083   65.2239 H   0  0  0  0  0  0  0  0  0  0  0  0
   41.8775   53.5388   65.5576 H   0  0  0  0  0  0  0  0  0  0  0  0
   46.0599   50.1341   66.2087 H   0  0  0  0  0  0  0  0  0  0  0  0
   44.9855   51.3510   66.9739 H   0  0  0  0  0  0  0  0  0  0  0  0
   43.6440   52.4041   65.4368 H   0  0  0  0  0  0  0  0  0  0  0  0
   46.4717   55.9496   66.6145 H   0  0  0  0  0  0  0  0  0  0  0  0
  1  9  1  0  0  0  0
  1 11  1  0  0  0  0
  1 29  1  0  0  0  0
  4 12  1  0  0  0  0
  4 13  1  0  0  0  0
  4 30  1  0  0  0  0
  5 49  1  0  0  0  0
  6 12  1  0  0  0  0
  6 15  1  0  0  0  0
  6 31  1  0  0  0  0
  7 50  1  0  0  0  0
  8 13  1  0  0  0  0
  8 15  1  0  0  0  0
  8 32  1  0  0  0  0
  2  9  1  0  0  0  0
  9 33  1  0  0  0  0
  2 10  1  0  0  0  0
 10 14  1  0  0  0  0
 10 34  1  0  0  0  0
 11 14  1  0  0  0  0
 11 24  1  0  0  0  0
 12 25  1  0  0  0  0
  7 13  1  0  0  0  0
  5 14  1  0  0  0  0
 15 26  1  0  0  0  0
  3 16  1  0  0  0  0
  5 16  1  0  0  0  0
 16 25  1  0  0  0  0
 17 18  1  0  0  0  0
 17 19  1  0  0  0  0
 17 35  1  0  0  0  0
 17 36  1  0  0  0  0
 18 20  1  0  0  0  0
 18 37  1  0  0  0  0
 18 38  1  0  0  0  0
 19 23  1  0  0  0  0
 19 39  1  0  0  0  0
 19 40  1  0  0  0  0
 20 21  1  0  0  0  0
 20 22  1  0  0  0  0
 20 41  1  0  0  0  0
 21 22  1  0  0  0  0
 21 23  1  0  0  0  0
 21 42  1  0  0  0  0
  7 22  1  0  0  0  0
 22 43  1  0  0  0  0
 23 27  1  0  0  0  0
 23 28  1  0  0  0  0
 24 44  1  0  0  0  0
 24 45  1  0  0  0  0
 24 46  1  0  0  0  0
 25 47  1  0  0  0  0
 25 48  1  0  0  0  0
M  END
>  <pdb_header>
REMARK   1 CREATED WITH MDTraj 1.9.4, 2020-08-14
CRYST1   96.805   96.805   96.805  90.00  90.00  90.00 P 1           1 


$$$$
EN300-342028-neutral-primary_aminebackwards
  PyMOL2.3          3D                             0

 48 50  0  0  0  0  0  0  0  0999 V2000
   41.8607   53.0184   62.6098 C   0  0  0  0  0  0  0  0  0  0  0  0
   43.6535   51.9111   61.4619 N   0  0  0  0  0  0  0  0  0  0  0  0
   49.4855   59.2464   66.4938 O   0  0  0  0  0  0  0  0  0  0  0  0
   48.8178   55.3735   64.7643 C   0  0  0  0  0  0  0  0  0  0  0  0
   44.8591   53.2374   64.7016 N   0  0  0  0  0  0  0  0  0  0  0  0
   48.1827   59.1982   64.7707 O   0  0  0  0  0  0  0  0  0  0  0  0
   49.1104   53.3774   65.9778 C   0  0  0  0  0  0  0  0  0  0  0  0
   50.8447   56.4414   63.8555 N   0  0  0  0  0  0  0  0  0  0  0  0
   46.4355   54.2414   63.4518 O   0  0  0  0  0  0  0  0  0  0  0  0
   51.0169   54.5442   65.0750 C   0  0  0  0  0  0  0  0  0  0  0  0
   42.3891   52.3994   61.4786 C   0  0  0  0  0  0  0  0  0  0  0  0
   44.4974   52.2175   62.5467 C   0  0  0  0  0  0  0  0  0  0  0  0
   42.6291   53.3162   63.7060 C   0  0  0  0  0  0  0  0  0  0  0  0
   48.2333   54.3437   65.5050 C   0  0  0  0  0  0  0  0  0  0  0  0
   50.2032   55.4621   64.5201 C   0  0  0  0  0  0  0  0  0  0  0  0
   43.9889   52.9005   63.6740 C   0  0  0  0  0  0  0  0  0  0  0  0
   50.5182   53.4848   65.8448 C   0  0  0  0  0  0  0  0  0  0  0  0
   49.2837   59.0152   65.3045 C   0  0  0  0  0  0  0  0  0  0  0  0
   46.0276   53.9338   64.5450 C   0  0  0  0  0  0  0  0  0  0  0  0
   50.9137   59.6064   62.1208 C   0  0  0  0  0  0  0  0  0  0  0  0
   50.7349   59.9648   63.5294 C   0  0  0  0  0  0  0  0  0  0  0  0
   50.9691   58.0747   62.0607 C   0  0  0  0  0  0  0  0  0  0  0  0
   50.4593   58.7229   64.3657 C   0  0  0  0  0  0  0  0  0  0  0  0
   50.1814   57.6267   63.2974 C   0  0  0  0  0  0  0  0  0  0  0  0
   41.9581   53.9810   64.9375 C   0  0  0  0  0  0  0  0  0  0  0  0
   46.7290   54.3409   65.7821 C   0  0  0  0  0  0  0  0  0  0  0  0
   51.6777   52.3658   66.6354 Cl  0  0  0  0  0  0  0  0  0  0  0  0
   40.7938   53.2231   62.5245 H   0  0  0  0  0  0  0  0  0  0  0  0
   48.2340   56.1849   64.3266 H   0  0  0  0  0  0  0  0  0  0  0  0
   48.5769   52.5373   66.3993 H   0  0  0  0  0  0  0  0  0  0  0  0
   52.0954   54.6188   64.9563 H   0  0  0  0  0  0  0  0  0  0  0  0
   41.7879   52.1991   60.6005 H   0  0  0  0  0  0  0  0  0  0  0  0
   45.5321   51.9172   62.4404 H   0  0  0  0  0  0  0  0  0  0  0  0
   50.0991   60.0443   61.5368 H   0  0  0  0  0  0  0  0  0  0  0  0
   51.8761   59.9903   61.7901 H   0  0  0  0  0  0  0  0  0  0  0  0
   51.6947   60.3707   63.8452 H   0  0  0  0  0  0  0  0  0  0  0  0
   49.9419   60.7091   63.6077 H   0  0  0  0  0  0  0  0  0  0  0  0
   50.6696   57.7729   61.0578 H   0  0  0  0  0  0  0  0  0  0  0  0
   52.0235   57.7935   62.1362 H   0  0  0  0  0  0  0  0  0  0  0  0
   51.3544   58.6431   65.0011 H   0  0  0  0  0  0  0  0  0  0  0  0
   49.1320   57.4373   63.0713 H   0  0  0  0  0  0  0  0  0  0  0  0
   40.9945   54.4092   64.6606 H   0  0  0  0  0  0  0  0  0  0  0  0
   41.8309   53.2251   65.7307 H   0  0  0  0  0  0  0  0  0  0  0  0
   42.5980   54.7983   65.2903 H   0  0  0  0  0  0  0  0  0  0  0  0
   46.5075   53.7228   66.6613 H   0  0  0  0  0  0  0  0  0  0  0  0
   46.4271   55.3336   66.1282 H   0  0  0  0  0  0  0  0  0  0  0  0
   44.5421   53.0234   65.6420 H   0  0  0  0  0  0  0  0  0  0  0  0
   51.8578   56.5043   63.9014 H   0  0  0  0  0  0  0  0  0  0  0  0
  1 11  1  0  0  0  0
  1 13  1  0  0  0  0
  1 28  1  0  0  0  0
  4 14  1  0  0  0  0
  4 15  1  0  0  0  0
  4 29  1  0  0  0  0
  5 47  1  0  0  0  0
  7 14  1  0  0  0  0
  7 17  1  0  0  0  0
  7 30  1  0  0  0  0
  8 48  1  0  0  0  0
 10 15  1  0  0  0  0
 10 17  1  0  0  0  0
 10 31  1  0  0  0  0
  2 11  1  0  0  0  0
 11 32  1  0  0  0  0
  2 12  1  0  0  0  0
 12 16  1  0  0  0  0
 12 33  1  0  0  0  0
 13 16  1  0  0  0  0
 13 25  1  0  0  0  0
 14 26  1  0  0  0  0
  8 15  1  0  0  0  0
  5 16  1  0  0  0  0
 17 27  1  0  0  0  0
  3 18  1  0  0  0  0
  6 18  1  0  0  0  0
 18 23  1  0  0  0  0
  5 19  1  0  0  0  0
  9 19  1  0  0  0  0
 19 26  1  0  0  0  0
 20 21  1  0  0  0  0
 20 22  1  0  0  0  0
 20 34  1  0  0  0  0
 20 35  1  0  0  0  0
 21 23  1  0  0  0  0
 21 36  1  0  0  0  0
 21 37  1  0  0  0  0
 22 24  1  0  0  0  0
 22 38  1  0  0  0  0
 22 39  1  0  0  0  0
 23 24  1  0  0  0  0
 23 40  1  0  0  0  0
  8 24  1  0  0  0  0
 24 41  1  0  0  0  0
 25 42  1  0  0  0  0
 25 43  1  0  0  0  0
 25 44  1  0  0  0  0
 26 45  1  0  0  0  0
 26 46  1  0  0  0  0
M  END
>  <pdb_header>
REMARK   1 CREATED WITH MDTraj 1.9.4, 2020-08-14
CRYST1   96.877   96.877   96.877  90.00  90.00  90.00 P 1           1 


$$$$
EN300-2515954-neutral-primary_aminebackwards
  PyMOL2.3          3D                             0

 60 64  0  0  0  0  0  0  0  0999 V2000
   41.3653   53.6016   61.9667 C   0  0  0  0  0  0  0  0  0  0  0  0
   42.6265   51.7264   61.0512 N   0  0  0  0  0  0  0  0  0  0  0  0
   44.5665   50.5282   64.5842 O   0  0  0  0  0  0  0  0  0  0  0  0
   47.9431   53.0742   65.7013 C   0  0  0  0  0  0  0  0  0  0  0  0
   44.1869   52.7193   64.2370 N   0  0  0  0  0  0  0  0  0  0  0  0
   47.7689   50.6473   65.3390 C   0  0  0  0  0  0  0  0  0  0  0  0
   50.3412   54.0004   65.3741 N   0  0  0  0  0  0  0  0  0  0  0  0
   49.8842   51.7367   65.0891 C   0  0  0  0  0  0  0  0  0  0  0  0
   49.3115   58.5387   65.9040 N   0  0  0  0  0  0  0  0  0  0  0  0
   41.6250   52.6480   60.9406 C   0  0  0  0  0  0  0  0  0  0  0  0
   43.3899   51.7480   62.1823 C   0  0  0  0  0  0  0  0  0  0  0  0
   42.1059   53.5940   63.1185 C   0  0  0  0  0  0  0  0  0  0  0  0
   47.1492   51.8988   65.7074 C   0  0  0  0  0  0  0  0  0  0  0  0
   49.3790   53.0048   65.4187 C   0  0  0  0  0  0  0  0  0  0  0  0
   43.2478   52.7328   63.2080 C   0  0  0  0  0  0  0  0  0  0  0  0
   49.1029   50.5775   65.0594 C   0  0  0  0  0  0  0  0  0  0  0  0
   44.7879   51.6804   64.9863 C   0  0  0  0  0  0  0  0  0  0  0  0
   48.2696   61.1767   65.1812 C   0  0  0  0  0  0  0  0  0  0  0  0
   49.7141   60.8641   64.9568 C   0  0  0  0  0  0  0  0  0  0  0  0
   47.7914   60.3326   66.3478 C   0  0  0  0  0  0  0  0  0  0  0  0
   49.6108   56.0116   66.9348 C   0  0  0  0  0  0  0  0  0  0  0  0
   48.9733   56.1897   64.8483 C   0  0  0  0  0  0  0  0  0  0  0  0
   51.0103   56.5244   65.3035 C   0  0  0  0  0  0  0  0  0  0  0  0
   49.8948   59.3331   64.7688 C   0  0  0  0  0  0  0  0  0  0  0  0
   47.9004   58.8289   66.1915 C   0  0  0  0  0  0  0  0  0  0  0  0
   50.0562   55.3927   65.5998 C   0  0  0  0  0  0  0  0  0  0  0  0
   49.6516   57.1136   65.8087 C   0  0  0  0  0  0  0  0  0  0  0  0
   41.8217   54.6840   64.0633 C   0  0  0  0  0  0  0  0  0  0  0  0
   45.7189   51.9752   66.1796 C   0  0  0  0  0  0  0  0  0  0  0  0
   49.8858   49.0695   64.6691 Cl  0  0  0  0  0  0  0  0  0  0  0  0
   40.5837   54.3551   61.9053 H   0  0  0  0  0  0  0  0  0  0  0  0
   47.4574   54.0051   65.9835 H   0  0  0  0  0  0  0  0  0  0  0  0
   47.0792   49.8103   65.3276 H   0  0  0  0  0  0  0  0  0  0  0  0
   50.9361   51.5770   64.8792 H   0  0  0  0  0  0  0  0  0  0  0  0
   41.0829   52.6923   60.0011 H   0  0  0  0  0  0  0  0  0  0  0  0
   44.1092   50.9418   62.3181 H   0  0  0  0  0  0  0  0  0  0  0  0
   48.1721   62.2519   65.3412 H   0  0  0  0  0  0  0  0  0  0  0  0
   47.6920   60.9703   64.2698 H   0  0  0  0  0  0  0  0  0  0  0  0
   50.2666   61.4459   64.2123 H   0  0  0  0  0  0  0  0  0  0  0  0
   50.3727   61.0334   65.8187 H   0  0  0  0  0  0  0  0  0  0  0  0
   48.4000   60.6650   67.1957 H   0  0  0  0  0  0  0  0  0  0  0  0
   46.7649   60.6597   66.5752 H   0  0  0  0  0  0  0  0  0  0  0  0
   50.3336   56.0089   67.7556 H   0  0  0  0  0  0  0  0  0  0  0  0
   48.6083   55.7749   67.3075 H   0  0  0  0  0  0  0  0  0  0  0  0
   47.9248   56.0294   65.1330 H   0  0  0  0  0  0  0  0  0  0  0  0
   49.0938   56.3826   63.7761 H   0  0  0  0  0  0  0  0  0  0  0  0
   51.8872   56.4969   65.9550 H   0  0  0  0  0  0  0  0  0  0  0  0
   51.2415   56.7558   64.2626 H   0  0  0  0  0  0  0  0  0  0  0  0
   49.3931   59.0777   63.8284 H   0  0  0  0  0  0  0  0  0  0  0  0
   50.9571   59.1162   64.6345 H   0  0  0  0  0  0  0  0  0  0  0  0
   47.5488   58.3574   67.1097 H   0  0  0  0  0  0  0  0  0  0  0  0
   47.3160   58.4246   65.3561 H   0  0  0  0  0  0  0  0  0  0  0  0
   42.5676   54.7162   64.8717 H   0  0  0  0  0  0  0  0  0  0  0  0
   41.6669   55.6866   63.6673 H   0  0  0  0  0  0  0  0  0  0  0  0
   40.9256   54.4854   64.6500 H   0  0  0  0  0  0  0  0  0  0  0  0
   45.4158   51.3064   66.9895 H   0  0  0  0  0  0  0  0  0  0  0  0
   45.5326   52.9963   66.5130 H   0  0  0  0  0  0  0  0  0  0  0  0
   44.3337   53.6954   64.4831 H   0  0  0  0  0  0  0  0  0  0  0  0
   51.3413   53.8826   65.2095 H   0  0  0  0  0  0  0  0  0  0  0  0
   49.7321   58.9068   66.7688 H   0  0  0  0  0  0  0  0  0  0  0  0
  1 10  1  0  0  0  0
  1 12  1  0  0  0  0
  1 31  1  0  0  0  0
  4 13  1  0  0  0  0
  4 14  1  0  0  0  0
  4 32  1  0  0  0  0
  5 58  1  0  0  0  0
  6 13  1  0  0  0  0
  6 16  1  0  0  0  0
  6 33  1  0  0  0  0
  7 59  1  0  0  0  0
  8 14  1  0  0  0  0
  8 16  1  0  0  0  0
  8 34  1  0  0  0  0
  9 60  1  0  0  0  0
  2 10  1  0  0  0  0
 10 35  1  0  0  0  0
  2 11  1  0  0  0  0
 11 15  1  0  0  0  0
 11 36  1  0  0  0  0
 12 15  1  0  0  0  0
 12 28  1  0  0  0  0
 13 29  1  0  0  0  0
  7 14  1  0  0  0  0
  5 15  1  0  0  0  0
 16 30  1  0  0  0  0
  3 17  1  0  0  0  0
  5 17  1  0  0  0  0
 17 29  1  0  0  0  0
 18 19  1  0  0  0  0
 18 20  1  0  0  0  0
 18 37  1  0  0  0  0
 18 38  1  0  0  0  0
 19 24  1  0  0  0  0
 19 39  1  0  0  0  0
 19 40  1  0  0  0  0
 20 25  1  0  0  0  0
 20 41  1  0  0  0  0
 20 42  1  0  0  0  0
 21 26  1  0  0  0  0
 21 27  1  0  0  0  0
 21 43  1  0  0  0  0
 21 44  1  0  0  0  0
 22 26  1  0  0  0  0
 22 27  1  0  0  0  0
 22 45  1  0  0  0  0
 22 46  1  0  0  0  0
 23 26  1  0  0  0  0
 23 27  1  0  0  0  0
 23 47  1  0  0  0  0
 23 48  1  0  0  0  0
  9 24  1  0  0  0  0
 24 49  1  0  0  0  0
 24 50  1  0  0  0  0
  9 25  1  0  0  0  0
 25 51  1  0  0  0  0
 25 52  1  0  0  0  0
  7 26  1  0  0  0  0
  9 27  1  0  0  0  0
 28 53  1  0  0  0  0
 28 54  1  0  0  0  0
 28 55  1  0  0  0  0
 29 56  1  0  0  0  0
 29 57  1  0  0  0  0
M  END
>  <pdb_header>
REMARK   1 CREATED WITH MDTraj 1.9.4, 2020-08-14
CRYST1   96.918   96.918   96.918  90.00  90.00  90.00 P 1           1 


$$$$
EN300-6497035-neutral-primary_aminebackwards
  PyMOL2.3          3D                             0

 50 53  0  0  0  0  0  0  0  0999 V2000
   39.8969   56.1692   66.3030 C   0  0  0  0  0  0  0  0  0  0  0  0
   40.7385   54.9200   64.5270 N   0  0  0  0  0  0  0  0  0  0  0  0
   43.7022   52.6745   66.4428 O   0  0  0  0  0  0  0  0  0  0  0  0
   46.3067   54.9947   67.1887 C   0  0  0  0  0  0  0  0  0  0  0  0
   42.9914   54.5653   67.5855 N   0  0  0  0  0  0  0  0  0  0  0  0
   47.1867   52.7661   67.3701 C   0  0  0  0  0  0  0  0  0  0  0  0
   47.7310   56.7215   66.2744 N   0  0  0  0  0  0  0  0  0  0  0  0
   48.5139   54.5768   66.6134 C   0  0  0  0  0  0  0  0  0  0  0  0
   39.8163   55.7114   65.0004 C   0  0  0  0  0  0  0  0  0  0  0  0
   41.7417   54.5197   65.3443 C   0  0  0  0  0  0  0  0  0  0  0  0
   40.9663   55.9141   67.1643 C   0  0  0  0  0  0  0  0  0  0  0  0
   46.1481   53.6509   67.6014 C   0  0  0  0  0  0  0  0  0  0  0  0
   47.5263   55.4831   66.6996 C   0  0  0  0  0  0  0  0  0  0  0  0
   41.9223   54.9864   66.7171 C   0  0  0  0  0  0  0  0  0  0  0  0
   48.4205   53.1576   66.8704 C   0  0  0  0  0  0  0  0  0  0  0  0
   43.7563   53.4270   67.4184 C   0  0  0  0  0  0  0  0  0  0  0  0
   46.4909   60.1850   66.3325 C   0  0  0  0  0  0  0  0  0  0  0  0
   45.3926   60.4295   65.2774 C   0  0  0  0  0  0  0  0  0  0  0  0
   47.5713   59.1021   66.0625 C   0  0  0  0  0  0  0  0  0  0  0  0
   44.9753   59.0949   64.6802 C   0  0  0  0  0  0  0  0  0  0  0  0
   45.6701   57.7612   65.0462 C   0  0  0  0  0  0  0  0  0  0  0  0
   46.7501   57.7938   66.1849 C   0  0  0  0  0  0  0  0  0  0  0  0
   44.2149   58.0495   65.4902 C   0  0  0  0  0  0  0  0  0  0  0  0
   40.9184   56.5397   68.4976 C   0  0  0  0  0  0  0  0  0  0  0  0
   44.8891   53.2044   68.3675 C   0  0  0  0  0  0  0  0  0  0  0  0
   49.7381   51.9745   66.8578 Cl  0  0  0  0  0  0  0  0  0  0  0  0
   43.2230   57.3162   64.8759 F   0  0  0  0  0  0  0  0  0  0  0  0
   44.0879   58.4427   66.7392 F   0  0  0  0  0  0  0  0  0  0  0  0
   39.1007   56.8650   66.5749 H   0  0  0  0  0  0  0  0  0  0  0  0
   45.4570   55.6763   67.2949 H   0  0  0  0  0  0  0  0  0  0  0  0
   47.0649   51.7314   67.6871 H   0  0  0  0  0  0  0  0  0  0  0  0
   49.4808   54.9031   66.2397 H   0  0  0  0  0  0  0  0  0  0  0  0
   38.9214   55.9311   64.4178 H   0  0  0  0  0  0  0  0  0  0  0  0
   42.4713   53.8722   64.8748 H   0  0  0  0  0  0  0  0  0  0  0  0
   46.9241   61.1840   66.4596 H   0  0  0  0  0  0  0  0  0  0  0  0
   46.0470   60.0302   67.3214 H   0  0  0  0  0  0  0  0  0  0  0  0
   44.5501   60.9801   65.7005 H   0  0  0  0  0  0  0  0  0  0  0  0
   45.8172   61.0448   64.4870 H   0  0  0  0  0  0  0  0  0  0  0  0
   47.9861   59.1865   65.0571 H   0  0  0  0  0  0  0  0  0  0  0  0
   48.3444   59.1125   66.8390 H   0  0  0  0  0  0  0  0  0  0  0  0
   44.6394   59.1836   63.6418 H   0  0  0  0  0  0  0  0  0  0  0  0
   45.6817   56.7843   64.5438 H   0  0  0  0  0  0  0  0  0  0  0  0
   46.2865   57.7862   67.1790 H   0  0  0  0  0  0  0  0  0  0  0  0
   41.6529   56.1787   69.2394 H   0  0  0  0  0  0  0  0  0  0  0  0
   41.2589   57.5852   68.5286 H   0  0  0  0  0  0  0  0  0  0  0  0
   39.9419   56.4851   68.9688 H   0  0  0  0  0  0  0  0  0  0  0  0
   44.9737   52.2106   68.8300 H   0  0  0  0  0  0  0  0  0  0  0  0
   44.8291   53.9379   69.1775 H   0  0  0  0  0  0  0  0  0  0  0  0
   43.0416   55.0504   68.4809 H   0  0  0  0  0  0  0  0  0  0  0  0
   48.6489   56.9584   65.8965 H   0  0  0  0  0  0  0  0  0  0  0  0
  1  9  1  0  0  0  0
  1 11  1  0  0  0  0
  1 29  1  0  0  0  0
  4 12  1  0  0  0  0
  4 13  1  0  0  0  0
  4 30  1  0  0  0  0
  5 49  1  0  0  0  0
  6 12  1  0  0  0  0
  6 15  1  0  0  0  0
  6 31  1  0  0  0  0
  7 50  1  0  0  0  0
  8 13  1  0  0  0  0
  8 15  1  0  0  0  0
  8 32  1  0  0  0  0
  2  9  1  0  0  0  0
  9 33  1  0  0  0  0
  2 10  1  0  0  0  0
 10 14  1  0  0  0  0
 10 34  1  0  0  0  0
 11 14  1  0  0  0  0
 11 24  1  0  0  0  0
 12 25  1  0  0  0  0
  7 13  1  0  0  0  0
  5 14  1  0  0  0  0
 15 26  1  0  0  0  0
  3 16  1  0  0  0  0
  5 16  1  0  0  0  0
 16 25  1  0  0  0  0
 17 18  1  0  0  0  0
 17 19  1  0  0  0  0
 17 35  1  0  0  0  0
 17 36  1  0  0  0  0
 18 20  1  0  0  0  0
 18 37  1  0  0  0  0
 18 38  1  0  0  0  0
 19 22  1  0  0  0  0
 19 39  1  0  0  0  0
 19 40  1  0  0  0  0
 20 21  1  0  0  0  0
 20 23  1  0  0  0  0
 20 41  1  0  0  0  0
 21 22  1  0  0  0  0
 21 23  1  0  0  0  0
 21 42  1  0  0  0  0
  7 22  1  0  0  0  0
 22 43  1  0  0  0  0
 23 27  1  0  0  0  0
 23 28  1  0  0  0  0
 24 44  1  0  0  0  0
 24 45  1  0  0  0  0
 24 46  1  0  0  0  0
 25 47  1  0  0  0  0
 25 48  1  0  0  0  0
M  END
>  <pdb_header>
REMARK   1 CREATED WITH MDTraj 1.9.4, 2020-08-14
CRYST1   96.814   96.814   96.814  90.00  90.00  90.00 P 1           1 


$$$$
EN300-26620085-neutral-primary_aminebackwards
  PyMOL2.3          3D                             0

 53 59  0  0  0  0  0  0  0  0999 V2000
   41.4252   55.4682   67.4631 C   0  0  0  0  0  0  0  0  0  0  0  0
   42.3103   56.1259   65.3296 N   0  0  0  0  0  0  0  0  0  0  0  0
   45.0915   53.3649   64.8328 O   0  0  0  0  0  0  0  0  0  0  0  0
   47.8858   54.2366   66.6428 C   0  0  0  0  0  0  0  0  0  0  0  0
   44.4511   53.6138   66.9991 N   0  0  0  0  0  0  0  0  0  0  0  0
   48.8612   52.1215   67.1186 C   0  0  0  0  0  0  0  0  0  0  0  0
   49.0983   56.3723   66.7860 N   0  0  0  0  0  0  0  0  0  0  0  0
   50.1584   54.2083   67.4476 C   0  0  0  0  0  0  0  0  0  0  0  0
   41.3248   56.1998   66.2656 C   0  0  0  0  0  0  0  0  0  0  0  0
   43.3835   55.3638   65.6599 C   0  0  0  0  0  0  0  0  0  0  0  0
   42.4610   54.6118   67.8519 C   0  0  0  0  0  0  0  0  0  0  0  0
   47.7703   52.8778   66.6958 C   0  0  0  0  0  0  0  0  0  0  0  0
   49.0479   54.9645   66.9777 C   0  0  0  0  0  0  0  0  0  0  0  0
   43.4102   54.4625   66.8378 C   0  0  0  0  0  0  0  0  0  0  0  0
   50.1184   52.7528   67.4014 C   0  0  0  0  0  0  0  0  0  0  0  0
   45.2932   53.0864   66.0183 C   0  0  0  0  0  0  0  0  0  0  0  0
   49.1014   61.2514   67.2502 C   0  0  0  0  0  0  0  0  0  0  0  0
   48.1810   60.0583   66.9372 C   0  0  0  0  0  0  0  0  0  0  0  0
   49.7008   60.4361   68.4182 C   0  0  0  0  0  0  0  0  0  0  0  0
   50.1793   60.6270   66.2520 C   0  0  0  0  0  0  0  0  0  0  0  0
   48.7091   59.2385   68.0542 C   0  0  0  0  0  0  0  0  0  0  0  0
   49.2375   59.5399   65.9029 C   0  0  0  0  0  0  0  0  0  0  0  0
   50.7192   59.8152   67.4852 C   0  0  0  0  0  0  0  0  0  0  0  0
   49.7523   58.6827   67.1340 C   0  0  0  0  0  0  0  0  0  0  0  0
   42.5779   53.9701   69.1930 C   0  0  0  0  0  0  0  0  0  0  0  0
   51.3127   57.0950   65.8953 C   0  0  0  0  0  0  0  0  0  0  0  0
   46.4678   52.1904   66.4577 C   0  0  0  0  0  0  0  0  0  0  0  0
   50.2738   57.2831   67.0020 C   0  0  0  0  0  0  0  0  0  0  0  0
   51.3692   51.7649   68.0579 Cl  0  0  0  0  0  0  0  0  0  0  0  0
   40.6042   55.6468   68.1601 H   0  0  0  0  0  0  0  0  0  0  0  0
   46.9798   54.8240   66.5175 H   0  0  0  0  0  0  0  0  0  0  0  0
   48.8271   51.0423   67.1494 H   0  0  0  0  0  0  0  0  0  0  0  0
   51.0895   54.6613   67.7799 H   0  0  0  0  0  0  0  0  0  0  0  0
   40.4363   56.7807   66.0692 H   0  0  0  0  0  0  0  0  0  0  0  0
   44.1897   55.4125   64.9386 H   0  0  0  0  0  0  0  0  0  0  0  0
   48.6898   62.2543   67.3569 H   0  0  0  0  0  0  0  0  0  0  0  0
   47.1241   60.1680   66.6618 H   0  0  0  0  0  0  0  0  0  0  0  0
   49.9041   60.8590   69.4136 H   0  0  0  0  0  0  0  0  0  0  0  0
   50.8546   61.2888   65.7000 H   0  0  0  0  0  0  0  0  0  0  0  0
   48.0422   58.6793   68.7171 H   0  0  0  0  0  0  0  0  0  0  0  0
   49.0200   59.1040   64.9306 H   0  0  0  0  0  0  0  0  0  0  0  0
   51.7659   59.6511   67.7756 H   0  0  0  0  0  0  0  0  0  0  0  0
   43.5369   54.3959   69.4926 H   0  0  0  0  0  0  0  0  0  0  0  0
   41.6957   54.2740   69.7706 H   0  0  0  0  0  0  0  0  0  0  0  0
   42.5195   52.8815   69.1468 H   0  0  0  0  0  0  0  0  0  0  0  0
   51.7367   56.0927   66.0576 H   0  0  0  0  0  0  0  0  0  0  0  0
   52.0342   57.9152   65.9398 H   0  0  0  0  0  0  0  0  0  0  0  0
   50.8742   57.3036   64.9194 H   0  0  0  0  0  0  0  0  0  0  0  0
   46.6095   51.4405   65.6828 H   0  0  0  0  0  0  0  0  0  0  0  0
   46.2292   51.6657   67.3837 H   0  0  0  0  0  0  0  0  0  0  0  0
   50.7960   57.0828   67.9387 H   0  0  0  0  0  0  0  0  0  0  0  0
   44.6791   53.3121   67.9400 H   0  0  0  0  0  0  0  0  0  0  0  0
   48.2604   56.7514   66.3460 H   0  0  0  0  0  0  0  0  0  0  0  0
  1  9  1  0  0  0  0
  1 11  1  0  0  0  0
  1 30  1  0  0  0  0
  4 12  1  0  0  0  0
  4 13  1  0  0  0  0
  4 31  1  0  0  0  0
  5 52  1  0  0  0  0
  6 12  1  0  0  0  0
  6 15  1  0  0  0  0
  6 32  1  0  0  0  0
  7 53  1  0  0  0  0
  8 13  1  0  0  0  0
  8 15  1  0  0  0  0
  8 33  1  0  0  0  0
  2  9  1  0  0  0  0
  9 34  1  0  0  0  0
  2 10  1  0  0  0  0
 10 14  1  0  0  0  0
 10 35  1  0  0  0  0
 11 14  1  0  0  0  0
 11 25  1  0  0  0  0
 12 27  1  0  0  0  0
  7 13  1  0  0  0  0
  5 14  1  0  0  0  0
 15 29  1  0  0  0  0
  3 16  1  0  0  0  0
  5 16  1  0  0  0  0
 16 27  1  0  0  0  0
 17 18  1  0  0  0  0
 17 19  1  0  0  0  0
 17 20  1  0  0  0  0
 17 36  1  0  0  0  0
 18 21  1  0  0  0  0
 18 22  1  0  0  0  0
 18 37  1  0  0  0  0
 19 21  1  0  0  0  0
 19 23  1  0  0  0  0
 19 38  1  0  0  0  0
 20 22  1  0  0  0  0
 20 23  1  0  0  0  0
 20 39  1  0  0  0  0
 21 24  1  0  0  0  0
 21 40  1  0  0  0  0
 22 24  1  0  0  0  0
 22 41  1  0  0  0  0
 23 24  1  0  0  0  0
 23 42  1  0  0  0  0
 24 28  1  0  0  0  0
 25 43  1  0  0  0  0
 25 44  1  0  0  0  0
 25 45  1  0  0  0  0
 26 28  1  0  0  0  0
 26 46  1  0  0  0  0
 26 47  1  0  0  0  0
 26 48  1  0  0  0  0
 27 49  1  0  0  0  0
 27 50  1  0  0  0  0
  7 28  1  0  0  0  0
 28 51  1  0  0  0  0
M  END
>  <pdb_header>
REMARK   1 CREATED WITH MDTraj 1.9.4, 2020-08-14
CRYST1   96.894   96.894   96.894  90.00  90.00  90.00 P 1           1 


$$$$
EN300-1692178-neutral-primary_aminebackwards
  PyMOL2.3          3D                             0

 65 68  0  0  0  0  0  0  0  0999 V2000
   41.6284   54.4841   61.0393 C   0  0  0  0  0  0  0  0  0  0  0  0
   42.8402   52.6653   60.3000 N   0  0  0  0  0  0  0  0  0  0  0  0
   43.8936   50.9116   63.8555 O   0  0  0  0  0  0  0  0  0  0  0  0
   45.3302   52.5952   67.9065 C   0  0  0  0  0  0  0  0  0  0  0  0
   43.3115   53.1189   63.9978 N   0  0  0  0  0  0  0  0  0  0  0  0
   46.5441   52.3400   71.9301 O   0  0  0  0  0  0  0  0  0  0  0  0
   46.4404   52.4494   65.7915 C   0  0  0  0  0  0  0  0  0  0  0  0
   46.5752   53.1639   69.8782 N   0  0  0  0  0  0  0  0  0  0  0  0
   45.8611   50.9394   70.2398 O   0  0  0  0  0  0  0  0  0  0  0  0
   47.6120   53.1479   67.7155 C   0  0  0  0  0  0  0  0  0  0  0  0
   46.8260   58.0628   72.6418 N   0  0  0  0  0  0  0  0  0  0  0  0
   41.9438   53.6053   60.0579 C   0  0  0  0  0  0  0  0  0  0  0  0
   43.2733   52.5572   61.5333 C   0  0  0  0  0  0  0  0  0  0  0  0
   42.0170   54.4017   62.3168 C   0  0  0  0  0  0  0  0  0  0  0  0
   45.2445   52.2724   66.5684 C   0  0  0  0  0  0  0  0  0  0  0  0
   46.5077   53.0427   68.4839 C   0  0  0  0  0  0  0  0  0  0  0  0
   42.8859   53.3825   62.6521 C   0  0  0  0  0  0  0  0  0  0  0  0
   47.6326   52.8322   66.3105 C   0  0  0  0  0  0  0  0  0  0  0  0
   43.6783   51.8697   64.5613 C   0  0  0  0  0  0  0  0  0  0  0  0
   46.3103   52.0855   70.7243 C   0  0  0  0  0  0  0  0  0  0  0  0
   47.5759   54.9504   71.5410 C   0  0  0  0  0  0  0  0  0  0  0  0
   47.2890   55.7156   69.4998 C   0  0  0  0  0  0  0  0  0  0  0  0
   45.6531   55.5280   70.9979 C   0  0  0  0  0  0  0  0  0  0  0  0
   47.0051   56.2670   70.9026 C   0  0  0  0  0  0  0  0  0  0  0  0
   46.6621   54.5595   70.4249 C   0  0  0  0  0  0  0  0  0  0  0  0
   41.5875   55.4163   63.3779 C   0  0  0  0  0  0  0  0  0  0  0  0
   45.1846   48.8080   69.7439 C   0  0  0  0  0  0  0  0  0  0  0  0
   47.0069   49.1578   71.5466 C   0  0  0  0  0  0  0  0  0  0  0  0
   44.4979   49.9041   71.9932 C   0  0  0  0  0  0  0  0  0  0  0  0
   43.8947   51.7929   66.0535 C   0  0  0  0  0  0  0  0  0  0  0  0
   47.3591   57.7538   71.2849 C   0  0  0  0  0  0  0  0  0  0  0  0
   45.6618   49.6849   70.9651 C   0  0  0  0  0  0  0  0  0  0  0  0
   49.0019   53.0278   65.2065 Cl  0  0  0  0  0  0  0  0  0  0  0  0
   41.0353   55.3631   60.8212 H   0  0  0  0  0  0  0  0  0  0  0  0
   44.4654   52.4281   68.5450 H   0  0  0  0  0  0  0  0  0  0  0  0
   46.3507   52.0991   64.7661 H   0  0  0  0  0  0  0  0  0  0  0  0
   48.5274   53.4625   68.2062 H   0  0  0  0  0  0  0  0  0  0  0  0
   41.6236   53.7752   59.0332 H   0  0  0  0  0  0  0  0  0  0  0  0
   44.0169   51.7781   61.6748 H   0  0  0  0  0  0  0  0  0  0  0  0
   48.6427   54.7773   71.3605 H   0  0  0  0  0  0  0  0  0  0  0  0
   47.3894   54.7826   72.6087 H   0  0  0  0  0  0  0  0  0  0  0  0
   46.6578   56.1231   68.7044 H   0  0  0  0  0  0  0  0  0  0  0  0
   48.3468   55.6479   69.2171 H   0  0  0  0  0  0  0  0  0  0  0  0
   44.9143   56.0146   70.3466 H   0  0  0  0  0  0  0  0  0  0  0  0
   45.1499   55.3585   71.9585 H   0  0  0  0  0  0  0  0  0  0  0  0
   42.4045   55.5859   64.0803 H   0  0  0  0  0  0  0  0  0  0  0  0
   41.3577   56.3972   62.9684 H   0  0  0  0  0  0  0  0  0  0  0  0
   40.6796   55.1476   63.9192 H   0  0  0  0  0  0  0  0  0  0  0  0
   44.1523   49.1250   69.5587 H   0  0  0  0  0  0  0  0  0  0  0  0
   45.7902   48.8006   68.8426 H   0  0  0  0  0  0  0  0  0  0  0  0
   45.0534   47.8147   70.1842 H   0  0  0  0  0  0  0  0  0  0  0  0
   46.9150   48.1466   71.9532 H   0  0  0  0  0  0  0  0  0  0  0  0
   47.2912   49.8029   72.3811 H   0  0  0  0  0  0  0  0  0  0  0  0
   47.7809   49.0071   70.7783 H   0  0  0  0  0  0  0  0  0  0  0  0
   44.1220   48.8971   72.1999 H   0  0  0  0  0  0  0  0  0  0  0  0
   44.8833   50.3520   72.9109 H   0  0  0  0  0  0  0  0  0  0  0  0
   43.6979   50.5226   71.5832 H   0  0  0  0  0  0  0  0  0  0  0  0
   43.5856   50.8240   66.4544 H   0  0  0  0  0  0  0  0  0  0  0  0
   43.0744   52.4134   66.4291 H   0  0  0  0  0  0  0  0  0  0  0  0
   46.9434   58.4669   70.5665 H   0  0  0  0  0  0  0  0  0  0  0  0
   48.4479   57.7587   71.2194 H   0  0  0  0  0  0  0  0  0  0  0  0
   42.9614   53.7364   64.7304 H   0  0  0  0  0  0  0  0  0  0  0  0
   47.1981   58.9694   72.9352 H   0  0  0  0  0  0  0  0  0  0  0  0
   47.2373   57.3612   73.2451 H   0  0  0  0  0  0  0  0  0  0  0  0
   45.8057   58.0621   72.5860 H   0  0  0  0  0  0  0  0  0  0  0  0
  1 12  1  0  0  0  0
  1 14  1  0  0  0  0
  1 34  1  0  0  0  0
  4 15  1  0  0  0  0
  4 16  1  0  0  0  0
  4 35  1  0  0  0  0
  5 62  1  0  0  0  0
  7 15  1  0  0  0  0
  7 18  1  0  0  0  0
  7 36  1  0  0  0  0
 10 16  1  0  0  0  0
 10 18  1  0  0  0  0
 10 37  1  0  0  0  0
 11 63  1  0  0  0  0
 11 64  1  0  0  0  0
 11 65  1  0  0  0  0
  2 12  1  0  0  0  0
 12 38  1  0  0  0  0
  2 13  1  0  0  0  0
 13 17  1  0  0  0  0
 13 39  1  0  0  0  0
 14 17  1  0  0  0  0
 14 26  1  0  0  0  0
 15 30  1  0  0  0  0
  8 16  1  0  0  0  0
  5 17  1  0  0  0  0
 18 33  1  0  0  0  0
  3 19  1  0  0  0  0
  5 19  1  0  0  0  0
 19 30  1  0  0  0  0
  6 20  1  0  0  0  0
  8 20  1  0  0  0  0
  9 20  1  0  0  0  0
 21 24  1  0  0  0  0
 21 25  1  0  0  0  0
 21 40  1  0  0  0  0
 21 41  1  0  0  0  0
 22 24  1  0  0  0  0
 22 25  1  0  0  0  0
 22 42  1  0  0  0  0
 22 43  1  0  0  0  0
 23 24  1  0  0  0  0
 23 25  1  0  0  0  0
 23 44  1  0  0  0  0
 23 45  1  0  0  0  0
 24 31  1  0  0  0  0
  8 25  1  0  0  0  0
 26 46  1  0  0  0  0
 26 47  1  0  0  0  0
 26 48  1  0  0  0  0
 27 32  1  0  0  0  0
 27 49  1  0  0  0  0
 27 50  1  0  0  0  0
 27 51  1  0  0  0  0
 28 32  1  0  0  0  0
 28 52  1  0  0  0  0
 28 53  1  0  0  0  0
 28 54  1  0  0  0  0
 29 32  1  0  0  0  0
 29 55  1  0  0  0  0
 29 56  1  0  0  0  0
 29 57  1  0  0  0  0
 30 58  1  0  0  0  0
 30 59  1  0  0  0  0
 11 31  1  0  0  0  0
 31 60  1  0  0  0  0
 31 61  1  0  0  0  0
  9 32  1  0  0  0  0
M  END
>  <pdb_header>
REMARK   1 CREATED WITH MDTraj 1.9.4, 2020-08-14
CRYST1   96.851   96.851   96.851  90.00  90.00  90.00 P 1           1 


$$$$
EN300-295395-neutral-primary_aminebackwards
  PyMOL2.3          3D                             0

 44 47  0  0  0  0  0  0  0  0999 V2000
   41.1874   53.7225   61.9855 C   0  0  0  0  0  0  0  0  0  0  0  0
   42.9889   52.5542   60.8487 N   0  0  0  0  0  0  0  0  0  0  0  0
   45.6025   54.2885   63.6310 O   0  0  0  0  0  0  0  0  0  0  0  0
   47.9683   54.7064   65.8290 C   0  0  0  0  0  0  0  0  0  0  0  0
   43.9012   52.9779   64.4852 N   0  0  0  0  0  0  0  0  0  0  0  0
   48.2061   52.3664   65.4697 C   0  0  0  0  0  0  0  0  0  0  0  0
   50.0264   56.1604   65.6623 N   0  0  0  0  0  0  0  0  0  0  0  0
   50.1647   53.7997   65.5237 C   0  0  0  0  0  0  0  0  0  0  0  0
   41.8043   53.1736   60.8596 C   0  0  0  0  0  0  0  0  0  0  0  0
   43.6490   52.5135   62.0453 C   0  0  0  0  0  0  0  0  0  0  0  0
   41.8517   53.6362   63.2454 C   0  0  0  0  0  0  0  0  0  0  0  0
   47.4143   53.4674   65.6855 C   0  0  0  0  0  0  0  0  0  0  0  0
   49.3569   54.9448   65.6838 C   0  0  0  0  0  0  0  0  0  0  0  0
   43.1643   53.0435   63.3052 C   0  0  0  0  0  0  0  0  0  0  0  0
   49.6324   52.5402   65.4746 C   0  0  0  0  0  0  0  0  0  0  0  0
   45.1453   53.5369   64.5518 C   0  0  0  0  0  0  0  0  0  0  0  0
   48.3259   58.0208   64.8042 C   0  0  0  0  0  0  0  0  0  0  0  0
   49.6407   57.2399   63.3418 C   0  0  0  0  0  0  0  0  0  0  0  0
   50.4089   58.5543   64.8772 C   0  0  0  0  0  0  0  0  0  0  0  0
   49.3269   58.6255   63.7416 C   0  0  0  0  0  0  0  0  0  0  0  0
   49.5622   57.2518   64.8591 C   0  0  0  0  0  0  0  0  0  0  0  0
   41.1205   54.0455   64.4965 C   0  0  0  0  0  0  0  0  0  0  0  0
   45.9203   53.3500   65.8726 C   0  0  0  0  0  0  0  0  0  0  0  0
   50.6444   51.1405   65.2315 Cl  0  0  0  0  0  0  0  0  0  0  0  0
   40.2677   54.2616   61.7773 H   0  0  0  0  0  0  0  0  0  0  0  0
   47.3167   55.5499   66.0193 H   0  0  0  0  0  0  0  0  0  0  0  0
   47.8862   51.3317   65.5255 H   0  0  0  0  0  0  0  0  0  0  0  0
   51.2107   53.9186   65.2491 H   0  0  0  0  0  0  0  0  0  0  0  0
   41.2761   53.4703   59.9615 H   0  0  0  0  0  0  0  0  0  0  0  0
   44.6596   52.1145   62.0798 H   0  0  0  0  0  0  0  0  0  0  0  0
   48.0349   58.7514   65.5779 H   0  0  0  0  0  0  0  0  0  0  0  0
   47.4204   57.5809   64.3806 H   0  0  0  0  0  0  0  0  0  0  0  0
   48.8514   56.6494   62.8749 H   0  0  0  0  0  0  0  0  0  0  0  0
   50.6079   57.0192   62.8740 H   0  0  0  0  0  0  0  0  0  0  0  0
   51.4465   58.4194   64.5580 H   0  0  0  0  0  0  0  0  0  0  0  0
   50.2763   59.2773   65.6839 H   0  0  0  0  0  0  0  0  0  0  0  0
   49.0922   59.4918   63.1198 H   0  0  0  0  0  0  0  0  0  0  0  0
   41.5380   53.4235   65.2850 H   0  0  0  0  0  0  0  0  0  0  0  0
   41.2458   55.1338   64.5680 H   0  0  0  0  0  0  0  0  0  0  0  0
   40.0658   53.7679   64.3797 H   0  0  0  0  0  0  0  0  0  0  0  0
   45.6751   52.3449   66.2163 H   0  0  0  0  0  0  0  0  0  0  0  0
   45.5920   54.0746   66.6271 H   0  0  0  0  0  0  0  0  0  0  0  0
   43.4059   52.6292   65.3018 H   0  0  0  0  0  0  0  0  0  0  0  0
   50.9787   56.1343   66.0366 H   0  0  0  0  0  0  0  0  0  0  0  0
  1  9  1  0  0  0  0
  1 11  1  0  0  0  0
  1 25  1  0  0  0  0
  4 12  1  0  0  0  0
  4 13  1  0  0  0  0
  4 26  1  0  0  0  0
  5 43  1  0  0  0  0
  6 12  1  0  0  0  0
  6 15  1  0  0  0  0
  6 27  1  0  0  0  0
  7 44  1  0  0  0  0
  8 13  1  0  0  0  0
  8 15  1  0  0  0  0
  8 28  1  0  0  0  0
  2  9  1  0  0  0  0
  9 29  1  0  0  0  0
  2 10  1  0  0  0  0
 10 14  1  0  0  0  0
 10 30  1  0  0  0  0
 11 14  1  0  0  0  0
 11 22  1  0  0  0  0
 12 23  1  0  0  0  0
  7 13  1  0  0  0  0
  5 14  1  0  0  0  0
 15 24  1  0  0  0  0
  3 16  1  0  0  0  0
  5 16  1  0  0  0  0
 16 23  1  0  0  0  0
 17 20  1  0  0  0  0
 17 21  1  0  0  0  0
 17 31  1  0  0  0  0
 17 32  1  0  0  0  0
 18 20  1  0  0  0  0
 18 21  1  0  0  0  0
 18 33  1  0  0  0  0
 18 34  1  0  0  0  0
 19 20  1  0  0  0  0
 19 21  1  0  0  0  0
 19 35  1  0  0  0  0
 19 36  1  0  0  0  0
 20 37  1  0  0  0  0
  7 21  1  0  0  0  0
 22 38  1  0  0  0  0
 22 39  1  0  0  0  0
 22 40  1  0  0  0  0
 23 41  1  0  0  0  0
 23 42  1  0  0  0  0
M  END
>  <pdb_header>
REMARK   1 CREATED WITH MDTraj 1.9.4, 2020-08-14
CRYST1   96.826   96.826   96.826  90.00  90.00  90.00 P 1           1 


$$$$
EN300-7429945-neutral-primary_aminebackwards
  PyMOL2.3          3D                             0

 50 52  0  0  0  0  0  0  0  0999 V2000
   42.3110   53.9494   61.7397 C   0  0  0  0  0  0  0  0  0  0  0  0
   43.3422   52.2402   60.4779 N   0  0  0  0  0  0  0  0  0  0  0  0
   43.5869   49.3931   63.6566 O   0  0  0  0  0  0  0  0  0  0  0  0
   46.4573   59.1338   66.9758 S   0  0  0  0  0  0  0  0  0  0  0  0
   46.8095   51.6352   65.6035 C   0  0  0  0  0  0  0  0  0  0  0  0
   43.9696   51.6027   64.0892 N   0  0  0  0  0  0  0  0  0  0  0  0
   47.6809   49.4921   64.9268 C   0  0  0  0  0  0  0  0  0  0  0  0
   48.3376   53.5163   66.1492 N   0  0  0  0  0  0  0  0  0  0  0  0
   49.1790   51.3393   65.4371 C   0  0  0  0  0  0  0  0  0  0  0  0
   42.6504   53.3626   60.5202 C   0  0  0  0  0  0  0  0  0  0  0  0
   43.6015   51.6681   61.6421 C   0  0  0  0  0  0  0  0  0  0  0  0
   42.7293   53.3822   62.9648 C   0  0  0  0  0  0  0  0  0  0  0  0
   46.6186   50.3002   65.2538 C   0  0  0  0  0  0  0  0  0  0  0  0
   48.0925   52.2060   65.6353 C   0  0  0  0  0  0  0  0  0  0  0  0
   43.4260   52.1912   62.9416 C   0  0  0  0  0  0  0  0  0  0  0  0
   48.9494   49.9895   64.9761 C   0  0  0  0  0  0  0  0  0  0  0  0
   44.1907   50.2223   64.2556 C   0  0  0  0  0  0  0  0  0  0  0  0
   46.3196   55.0590   65.9941 C   0  0  0  0  0  0  0  0  0  0  0  0
   47.7863   55.7803   67.0886 C   0  0  0  0  0  0  0  0  0  0  0  0
   46.4134   56.3296   66.8274 C   0  0  0  0  0  0  0  0  0  0  0  0
   47.3283   54.4234   66.7860 C   0  0  0  0  0  0  0  0  0  0  0  0
   42.5645   54.2036   64.2496 C   0  0  0  0  0  0  0  0  0  0  0  0
   45.7150   60.4425   65.9694 C   0  0  0  0  0  0  0  0  0  0  0  0
   45.2494   49.7402   65.3556 C   0  0  0  0  0  0  0  0  0  0  0  0
   46.2481   57.5968   65.9585 C   0  0  0  0  0  0  0  0  0  0  0  0
   50.2266   48.9503   64.7329 Cl  0  0  0  0  0  0  0  0  0  0  0  0
   41.7261   54.8703   61.7114 H   0  0  0  0  0  0  0  0  0  0  0  0
   46.0360   52.3064   65.9661 H   0  0  0  0  0  0  0  0  0  0  0  0
   47.5696   48.4315   64.6737 H   0  0  0  0  0  0  0  0  0  0  0  0
   50.1706   51.7453   65.6055 H   0  0  0  0  0  0  0  0  0  0  0  0
   42.2536   53.8539   59.6293 H   0  0  0  0  0  0  0  0  0  0  0  0
   44.0784   50.7143   61.4544 H   0  0  0  0  0  0  0  0  0  0  0  0
   45.3190   54.6257   66.0122 H   0  0  0  0  0  0  0  0  0  0  0  0
   46.6204   55.2812   64.9632 H   0  0  0  0  0  0  0  0  0  0  0  0
   48.5860   56.1903   66.4578 H   0  0  0  0  0  0  0  0  0  0  0  0
   48.0592   55.8656   68.1406 H   0  0  0  0  0  0  0  0  0  0  0  0
   45.7988   56.3336   67.7358 H   0  0  0  0  0  0  0  0  0  0  0  0
   46.7956   53.9164   67.5966 H   0  0  0  0  0  0  0  0  0  0  0  0
   42.5666   53.5910   65.1509 H   0  0  0  0  0  0  0  0  0  0  0  0
   43.3865   54.9223   64.2970 H   0  0  0  0  0  0  0  0  0  0  0  0
   41.6314   54.7548   64.2802 H   0  0  0  0  0  0  0  0  0  0  0  0
   46.2416   60.5199   65.0097 H   0  0  0  0  0  0  0  0  0  0  0  0
   45.7696   61.3715   66.5437 H   0  0  0  0  0  0  0  0  0  0  0  0
   44.6383   60.3378   65.8110 H   0  0  0  0  0  0  0  0  0  0  0  0
   45.2541   48.6516   65.4011 H   0  0  0  0  0  0  0  0  0  0  0  0
   44.8313   50.0166   66.3285 H   0  0  0  0  0  0  0  0  0  0  0  0
   45.2360   57.5678   65.5483 H   0  0  0  0  0  0  0  0  0  0  0  0
   46.8670   57.6168   65.0516 H   0  0  0  0  0  0  0  0  0  0  0  0
   44.1259   52.1507   64.9332 H   0  0  0  0  0  0  0  0  0  0  0  0
   49.1529   54.0220   65.7896 H   0  0  0  0  0  0  0  0  0  0  0  0
  1 10  1  0  0  0  0
  1 12  1  0  0  0  0
  1 27  1  0  0  0  0
  5 13  1  0  0  0  0
  5 14  1  0  0  0  0
  5 28  1  0  0  0  0
  6 49  1  0  0  0  0
  7 13  1  0  0  0  0
  7 16  1  0  0  0  0
  7 29  1  0  0  0  0
  8 50  1  0  0  0  0
  9 14  1  0  0  0  0
  9 16  1  0  0  0  0
  9 30  1  0  0  0  0
  2 10  1  0  0  0  0
 10 31  1  0  0  0  0
  2 11  1  0  0  0  0
 11 15  1  0  0  0  0
 11 32  1  0  0  0  0
 12 15  1  0  0  0  0
 12 22  1  0  0  0  0
 13 24  1  0  0  0  0
  8 14  1  0  0  0  0
  6 15  1  0  0  0  0
 16 26  1  0  0  0  0
  3 17  1  0  0  0  0
  6 17  1  0  0  0  0
 17 24  1  0  0  0  0
 18 20  1  0  0  0  0
 18 21  1  0  0  0  0
 18 33  1  0  0  0  0
 18 34  1  0  0  0  0
 19 20  1  0  0  0  0
 19 21  1  0  0  0  0
 19 35  1  0  0  0  0
 19 36  1  0  0  0  0
 20 25  1  0  0  0  0
 20 37  1  0  0  0  0
  8 21  1  0  0  0  0
 21 38  1  0  0  0  0
 22 39  1  0  0  0  0
 22 40  1  0  0  0  0
 22 41  1  0  0  0  0
  4 23  1  0  0  0  0
 23 42  1  0  0  0  0
 23 43  1  0  0  0  0
 23 44  1  0  0  0  0
 24 45  1  0  0  0  0
 24 46  1  0  0  0  0
  4 25  1  0  0  0  0
 25 47  1  0  0  0  0
 25 48  1  0  0  0  0
M  END
>  <pdb_header>
REMARK   1 CREATED WITH MDTraj 1.9.4, 2020-08-14
CRYST1   96.892   96.892   96.892  90.00  90.00  90.00 P 1           1 


$$$$
EN300-352243-neutral-primary_aminebackwards
  PyMOL2.3          3D                             0

 41 43  0  0  0  0  0  0  0  0999 V2000
   41.0231   53.0141   61.8873 C   0  0  0  0  0  0  0  0  0  0  0  0
   43.0072   52.2896   60.7137 N   0  0  0  0  0  0  0  0  0  0  0  0
   47.3305   60.2329   66.4534 O   0  0  0  0  0  0  0  0  0  0  0  0
   46.7396   55.1914   66.7093 C   0  0  0  0  0  0  0  0  0  0  0  0
   48.0891   59.6006   64.4045 N   0  0  0  0  0  0  0  0  0  0  0  0
   45.2039   53.8918   63.6351 O   0  0  0  0  0  0  0  0  0  0  0  0
   47.7297   53.2042   65.6925 C   0  0  0  0  0  0  0  0  0  0  0  0
   43.4298   52.6738   64.3723 N   0  0  0  0  0  0  0  0  0  0  0  0
   49.0867   55.1133   66.3941 C   0  0  0  0  0  0  0  0  0  0  0  0
   47.9053   57.2060   66.8407 N   0  0  0  0  0  0  0  0  0  0  0  0
   41.7568   52.7244   60.7029 C   0  0  0  0  0  0  0  0  0  0  0  0
   43.5210   52.1566   61.9396 C   0  0  0  0  0  0  0  0  0  0  0  0
   41.5461   53.0125   63.0588 C   0  0  0  0  0  0  0  0  0  0  0  0
   46.5733   53.9772   66.0350 C   0  0  0  0  0  0  0  0  0  0  0  0
   47.9283   55.8258   66.6302 C   0  0  0  0  0  0  0  0  0  0  0  0
   42.8426   52.5735   63.1407 C   0  0  0  0  0  0  0  0  0  0  0  0
   49.0099   53.7460   65.9903 C   0  0  0  0  0  0  0  0  0  0  0  0
   48.1122   59.6134   65.7585 C   0  0  0  0  0  0  0  0  0  0  0  0
   44.6570   53.2787   64.5818 C   0  0  0  0  0  0  0  0  0  0  0  0
   48.4794   58.1712   64.4589 C   0  0  0  0  0  0  0  0  0  0  0  0
   48.6819   58.1912   66.0317 C   0  0  0  0  0  0  0  0  0  0  0  0
   40.6586   53.5509   64.1893 C   0  0  0  0  0  0  0  0  0  0  0  0
   45.1904   53.3284   65.9749 C   0  0  0  0  0  0  0  0  0  0  0  0
   50.5184   52.9351   65.7148 Cl  0  0  0  0  0  0  0  0  0  0  0  0
   40.0266   53.3624   61.6217 H   0  0  0  0  0  0  0  0  0  0  0  0
   45.8576   55.7720   66.9547 H   0  0  0  0  0  0  0  0  0  0  0  0
   47.7453   52.2145   65.2455 H   0  0  0  0  0  0  0  0  0  0  0  0
   50.0781   55.5592   66.4461 H   0  0  0  0  0  0  0  0  0  0  0  0
   41.2544   52.9037   59.7623 H   0  0  0  0  0  0  0  0  0  0  0  0
   44.5260   51.7719   62.1130 H   0  0  0  0  0  0  0  0  0  0  0  0
   47.7035   57.5092   64.0566 H   0  0  0  0  0  0  0  0  0  0  0  0
   49.4208   58.0732   63.9110 H   0  0  0  0  0  0  0  0  0  0  0  0
   49.7149   58.2796   66.3785 H   0  0  0  0  0  0  0  0  0  0  0  0
   40.4298   52.8101   64.9524 H   0  0  0  0  0  0  0  0  0  0  0  0
   41.0326   54.4670   64.6655 H   0  0  0  0  0  0  0  0  0  0  0  0
   39.6278   53.7230   63.8764 H   0  0  0  0  0  0  0  0  0  0  0  0
   45.3890   52.3105   66.3110 H   0  0  0  0  0  0  0  0  0  0  0  0
   44.5036   53.9026   66.6054 H   0  0  0  0  0  0  0  0  0  0  0  0
   47.2903   60.0511   63.9573 H   0  0  0  0  0  0  0  0  0  0  0  0
   42.8798   52.3886   65.1859 H   0  0  0  0  0  0  0  0  0  0  0  0
   46.9994   57.6506   66.9978 H   0  0  0  0  0  0  0  0  0  0  0  0
  1 11  1  0  0  0  0
  1 13  1  0  0  0  0
  1 25  1  0  0  0  0
  4 14  1  0  0  0  0
  4 15  1  0  0  0  0
  4 26  1  0  0  0  0
  5 39  1  0  0  0  0
  7 14  1  0  0  0  0
  7 17  1  0  0  0  0
  7 27  1  0  0  0  0
  8 40  1  0  0  0  0
  9 15  1  0  0  0  0
  9 17  1  0  0  0  0
  9 28  1  0  0  0  0
 10 41  1  0  0  0  0
  2 11  1  0  0  0  0
 11 29  1  0  0  0  0
  2 12  1  0  0  0  0
 12 16  1  0  0  0  0
 12 30  1  0  0  0  0
 13 16  1  0  0  0  0
 13 22  1  0  0  0  0
 14 23  1  0  0  0  0
 10 15  1  0  0  0  0
  8 16  1  0  0  0  0
 17 24  1  0  0  0  0
  3 18  1  0  0  0  0
  5 18  1  0  0  0  0
 18 21  1  0  0  0  0
  6 19  1  0  0  0  0
  8 19  1  0  0  0  0
 19 23  1  0  0  0  0
  5 20  1  0  0  0  0
 20 21  1  0  0  0  0
 20 31  1  0  0  0  0
 20 32  1  0  0  0  0
 10 21  1  0  0  0  0
 21 33  1  0  0  0  0
 22 34  1  0  0  0  0
 22 35  1  0  0  0  0
 22 36  1  0  0  0  0
 23 37  1  0  0  0  0
 23 38  1  0  0  0  0
M  END
>  <pdb_header>
REMARK   1 CREATED WITH MDTraj 1.9.4, 2020-08-14
CRYST1   96.943   96.943   96.943  90.00  90.00  90.00 P 1           1 


$$$$
EN300-315164-neutral-primary_aminebackwards
  PyMOL2.3          3D                             0

 52 55  0  0  0  0  0  0  0  0999 V2000
   50.8710   54.0657   69.3232 C   0  0  0  0  0  0  0  0  0  0  0  0
   42.6288   51.4391   60.5941 N   0  0  0  0  0  0  0  0  0  0  0  0
   44.0436   50.5855   64.3623 O   0  0  0  0  0  0  0  0  0  0  0  0
   52.1138   52.2205   68.4399 C   0  0  0  0  0  0  0  0  0  0  0  0
   52.9784   52.2880   71.6353 N   0  0  0  0  0  0  0  0  0  0  0  0
   50.5913   54.5702   68.0574 C   0  0  0  0  0  0  0  0  0  0  0  0
   52.1945   53.1081   72.0079 N   0  0  0  0  0  0  0  0  0  0  0  0
   51.8714   52.7662   67.1316 C   0  0  0  0  0  0  0  0  0  0  0  0
   43.9201   52.7594   63.8495 N   0  0  0  0  0  0  0  0  0  0  0  0
   41.5070   53.4716   61.0316 C   0  0  0  0  0  0  0  0  0  0  0  0
   49.3084   54.3527   65.3418 N   0  0  0  0  0  0  0  0  0  0  0  0
   47.3260   53.1547   65.4470 C   0  0  0  0  0  0  0  0  0  0  0  0
   47.2576   50.7712   65.3957 C   0  0  0  0  0  0  0  0  0  0  0  0
   49.3363   51.8704   64.9385 C   0  0  0  0  0  0  0  0  0  0  0  0
   41.7867   52.3445   60.1944 C   0  0  0  0  0  0  0  0  0  0  0  0
   43.2371   51.5431   61.8066 C   0  0  0  0  0  0  0  0  0  0  0  0
   51.5884   52.8416   69.5610 C   0  0  0  0  0  0  0  0  0  0  0  0
   51.0770   53.8568   66.9343 C   0  0  0  0  0  0  0  0  0  0  0  0
   42.2315   53.5987   62.2202 C   0  0  0  0  0  0  0  0  0  0  0  0
   46.5943   51.9577   65.6202 C   0  0  0  0  0  0  0  0  0  0  0  0
   48.6892   53.1295   65.1864 C   0  0  0  0  0  0  0  0  0  0  0  0
   43.1029   52.6873   62.6186 C   0  0  0  0  0  0  0  0  0  0  0  0
   48.5690   50.6905   64.9255 C   0  0  0  0  0  0  0  0  0  0  0  0
   44.3576   51.7330   64.6727 C   0  0  0  0  0  0  0  0  0  0  0  0
   51.6849   52.2661   70.9427 C   0  0  0  0  0  0  0  0  0  0  0  0
   42.0278   54.7827   63.1228 C   0  0  0  0  0  0  0  0  0  0  0  0
   45.1524   51.9864   65.9326 C   0  0  0  0  0  0  0  0  0  0  0  0
   50.7959   54.4234   65.5795 C   0  0  0  0  0  0  0  0  0  0  0  0
   50.7374   51.0079   71.3728 C   0  0  0  0  0  0  0  0  0  0  0  0
   49.3769   49.1504   64.5511 Cl  0  0  0  0  0  0  0  0  0  0  0  0
   49.4374   51.3550   71.3260 F   0  0  0  0  0  0  0  0  0  0  0  0
   51.1708   50.0254   70.5567 F   0  0  0  0  0  0  0  0  0  0  0  0
   50.9338   50.6385   72.6611 F   0  0  0  0  0  0  0  0  0  0  0  0
   50.4497   54.6078   70.1699 H   0  0  0  0  0  0  0  0  0  0  0  0
   52.7472   51.3360   68.4253 H   0  0  0  0  0  0  0  0  0  0  0  0
   50.1378   55.5513   67.9896 H   0  0  0  0  0  0  0  0  0  0  0  0
   52.2110   52.2295   66.2606 H   0  0  0  0  0  0  0  0  0  0  0  0
   40.7956   54.2081   60.6815 H   0  0  0  0  0  0  0  0  0  0  0  0
   46.8890   54.1428   65.4826 H   0  0  0  0  0  0  0  0  0  0  0  0
   46.5844   49.9272   65.4662 H   0  0  0  0  0  0  0  0  0  0  0  0
   50.4028   51.8733   64.7694 H   0  0  0  0  0  0  0  0  0  0  0  0
   41.3315   52.2866   59.2148 H   0  0  0  0  0  0  0  0  0  0  0  0
   44.0184   50.8235   62.0438 H   0  0  0  0  0  0  0  0  0  0  0  0
   42.9508   55.3420   63.3270 H   0  0  0  0  0  0  0  0  0  0  0  0
   41.3244   55.5153   62.7408 H   0  0  0  0  0  0  0  0  0  0  0  0
   41.6014   54.4429   64.0675 H   0  0  0  0  0  0  0  0  0  0  0  0
   44.7824   51.2747   66.6699 H   0  0  0  0  0  0  0  0  0  0  0  0
   44.8957   52.9852   66.2872 H   0  0  0  0  0  0  0  0  0  0  0  0
   51.2313   55.4204   65.4251 H   0  0  0  0  0  0  0  0  0  0  0  0
   51.2293   53.9449   64.7062 H   0  0  0  0  0  0  0  0  0  0  0  0
   44.0871   53.6616   64.2964 H   0  0  0  0  0  0  0  0  0  0  0  0
   48.7008   55.1691   65.3366 H   0  0  0  0  0  0  0  0  0  0  0  0
  1  6  1  0  0  0  0
  1 17  1  0  0  0  0
  1 34  1  0  0  0  0
  4  8  1  0  0  0  0
  4 17  1  0  0  0  0
  4 35  1  0  0  0  0
  5  7  1  0  0  0  0
  6 18  1  0  0  0  0
  6 36  1  0  0  0  0
  8 18  1  0  0  0  0
  8 37  1  0  0  0  0
  9 51  1  0  0  0  0
 10 15  1  0  0  0  0
 10 19  1  0  0  0  0
 10 38  1  0  0  0  0
 11 52  1  0  0  0  0
 12 20  1  0  0  0  0
 12 21  1  0  0  0  0
 12 39  1  0  0  0  0
 13 20  1  0  0  0  0
 13 23  1  0  0  0  0
 13 40  1  0  0  0  0
 14 21  1  0  0  0  0
 14 23  1  0  0  0  0
 14 41  1  0  0  0  0
  2 15  1  0  0  0  0
 15 42  1  0  0  0  0
  2 16  1  0  0  0  0
 16 22  1  0  0  0  0
 16 43  1  0  0  0  0
 17 25  1  0  0  0  0
 18 28  1  0  0  0  0
 19 22  1  0  0  0  0
 19 26  1  0  0  0  0
 20 27  1  0  0  0  0
 11 21  1  0  0  0  0
  9 22  1  0  0  0  0
 23 30  1  0  0  0  0
  3 24  1  0  0  0  0
  9 24  1  0  0  0  0
 24 27  1  0  0  0  0
  5 25  1  0  0  0  0
  7 25  1  0  0  0  0
 25 29  1  0  0  0  0
 26 44  1  0  0  0  0
 26 45  1  0  0  0  0
 26 46  1  0  0  0  0
 27 47  1  0  0  0  0
 27 48  1  0  0  0  0
 11 28  1  0  0  0  0
 28 49  1  0  0  0  0
 28 50  1  0  0  0  0
 29 31  1  0  0  0  0
 29 32  1  0  0  0  0
 29 33  1  0  0  0  0
M  END
>  <pdb_header>
REMARK   1 CREATED WITH MDTraj 1.9.4, 2020-08-14
CRYST1   96.977   96.977   96.977  90.00  90.00  90.00 P 1           1 


$$$$
EN300-59896-neutral-primary_aminebackwards
  PyMOL2.3          3D                             0

 43 44  0  0  0  0  0  0  0  0999 V2000
   50.8217   60.0817   65.4122 C   0  0  0  0  0  0  0  0  0  0  0  0
   50.7225   61.0857   64.8386 N   0  0  0  0  0  0  0  0  0  0  0  0
   46.0964   52.6347   64.0123 O   0  0  0  0  0  0  0  0  0  0  0  0
   41.1849   52.7009   62.8871 C   0  0  0  0  0  0  0  0  0  0  0  0
   43.0140   52.1000   61.4227 N   0  0  0  0  0  0  0  0  0  0  0  0
   48.5490   55.2777   65.4003 C   0  0  0  0  0  0  0  0  0  0  0  0
   44.1976   53.6136   64.6894 N   0  0  0  0  0  0  0  0  0  0  0  0
   48.3981   52.9531   65.7054 C   0  0  0  0  0  0  0  0  0  0  0  0
   50.6502   56.4316   65.4137 N   0  0  0  0  0  0  0  0  0  0  0  0
   50.4990   54.0964   65.6130 C   0  0  0  0  0  0  0  0  0  0  0  0
   41.6821   52.2383   61.6719 C   0  0  0  0  0  0  0  0  0  0  0  0
   43.8188   52.5777   62.3488 C   0  0  0  0  0  0  0  0  0  0  0  0
   42.0218   53.0687   63.8931 C   0  0  0  0  0  0  0  0  0  0  0  0
   47.7646   54.1341   65.6410 C   0  0  0  0  0  0  0  0  0  0  0  0
   49.9293   55.3240   65.5145 C   0  0  0  0  0  0  0  0  0  0  0  0
   43.4034   53.0648   63.6625 C   0  0  0  0  0  0  0  0  0  0  0  0
   49.7949   52.8627   65.6725 C   0  0  0  0  0  0  0  0  0  0  0  0
   45.5458   53.4721   64.7421 C   0  0  0  0  0  0  0  0  0  0  0  0
   41.3638   53.5366   65.1989 C   0  0  0  0  0  0  0  0  0  0  0  0
   50.2160   57.9449   63.5015 C   0  0  0  0  0  0  0  0  0  0  0  0
   50.9253   58.7435   65.9161 C   0  0  0  0  0  0  0  0  0  0  0  0
   46.2928   54.3099   65.7676 C   0  0  0  0  0  0  0  0  0  0  0  0
   50.1687   57.7725   65.0778 C   0  0  0  0  0  0  0  0  0  0  0  0
   50.5504   51.2762   65.6107 Cl  0  0  0  0  0  0  0  0  0  0  0  0
   40.1159   52.9104   62.8922 H   0  0  0  0  0  0  0  0  0  0  0  0
   48.0062   56.1846   65.1664 H   0  0  0  0  0  0  0  0  0  0  0  0
   47.9332   51.9814   65.8166 H   0  0  0  0  0  0  0  0  0  0  0  0
   51.5716   53.9214   65.6177 H   0  0  0  0  0  0  0  0  0  0  0  0
   41.1258   51.8989   60.8013 H   0  0  0  0  0  0  0  0  0  0  0  0
   44.8612   52.6275   62.0617 H   0  0  0  0  0  0  0  0  0  0  0  0
   40.2723   53.5377   65.2117 H   0  0  0  0  0  0  0  0  0  0  0  0
   41.7912   53.0937   66.1062 H   0  0  0  0  0  0  0  0  0  0  0  0
   41.4415   54.6245   65.2878 H   0  0  0  0  0  0  0  0  0  0  0  0
   49.9648   58.9841   63.2575 H   0  0  0  0  0  0  0  0  0  0  0  0
   51.1942   57.6603   63.0890 H   0  0  0  0  0  0  0  0  0  0  0  0
   49.5157   57.1976   63.1210 H   0  0  0  0  0  0  0  0  0  0  0  0
   50.4564   58.6815   66.9075 H   0  0  0  0  0  0  0  0  0  0  0  0
   52.0111   58.5825   65.9996 H   0  0  0  0  0  0  0  0  0  0  0  0
   46.0499   53.9417   66.7664 H   0  0  0  0  0  0  0  0  0  0  0  0
   46.1662   55.3982   65.7652 H   0  0  0  0  0  0  0  0  0  0  0  0
   49.1045   57.8126   65.3210 H   0  0  0  0  0  0  0  0  0  0  0  0
   43.7772   54.4442   65.1199 H   0  0  0  0  0  0  0  0  0  0  0  0
   51.6144   56.5123   65.7410 H   0  0  0  0  0  0  0  0  0  0  0  0
  1  2  1  0  0  0  0
  1 21  1  0  0  0  0
  4 11  1  0  0  0  0
  4 13  1  0  0  0  0
  4 25  1  0  0  0  0
  6 14  1  0  0  0  0
  6 15  1  0  0  0  0
  6 26  1  0  0  0  0
  7 42  1  0  0  0  0
  8 14  1  0  0  0  0
  8 17  1  0  0  0  0
  8 27  1  0  0  0  0
  9 43  1  0  0  0  0
 10 15  1  0  0  0  0
 10 17  1  0  0  0  0
 10 28  1  0  0  0  0
  5 11  1  0  0  0  0
 11 29  1  0  0  0  0
  5 12  1  0  0  0  0
 12 16  1  0  0  0  0
 12 30  1  0  0  0  0
 13 16  1  0  0  0  0
 13 19  1  0  0  0  0
 14 22  1  0  0  0  0
  9 15  1  0  0  0  0
  7 16  1  0  0  0  0
 17 24  1  0  0  0  0
  3 18  1  0  0  0  0
  7 18  1  0  0  0  0
 18 22  1  0  0  0  0
 19 31  1  0  0  0  0
 19 32  1  0  0  0  0
 19 33  1  0  0  0  0
 20 23  1  0  0  0  0
 20 34  1  0  0  0  0
 20 35  1  0  0  0  0
 20 36  1  0  0  0  0
 21 23  1  0  0  0  0
 21 37  1  0  0  0  0
 21 38  1  0  0  0  0
 22 39  1  0  0  0  0
 22 40  1  0  0  0  0
  9 23  1  0  0  0  0
 23 41  1  0  0  0  0
M  END
>  <pdb_header>
REMARK   1 CREATED WITH MDTraj 1.9.4, 2020-08-14
CRYST1   96.874   96.874   96.874  90.00  90.00  90.00 P 1           1 


$$$$
EN300-131018-neutral-primary_aminebackwards
  PyMOL2.3          3D                             0

 46 47  0  0  0  0  0  0  0  0999 V2000
   45.9824   49.9268   71.1354 C   0  0  0  0  0  0  0  0  0  0  0  0
   47.0604   49.6337   71.5609 N   0  0  0  0  0  0  0  0  0  0  0  0
   47.7129   50.6432   64.0115 O   0  0  0  0  0  0  0  0  0  0  0  0
   43.7656   53.5410   63.2898 C   0  0  0  0  0  0  0  0  0  0  0  0
   44.5855   51.8913   61.7252 N   0  0  0  0  0  0  0  0  0  0  0  0
   47.5359   52.2311   67.5392 C   0  0  0  0  0  0  0  0  0  0  0  0
   47.1980   52.8069   64.2011 N   0  0  0  0  0  0  0  0  0  0  0  0
   49.1979   53.9780   67.0755 C   0  0  0  0  0  0  0  0  0  0  0  0
   46.1484   52.4361   69.5659 N   0  0  0  0  0  0  0  0  0  0  0  0
   47.8956   54.0895   69.0823 C   0  0  0  0  0  0  0  0  0  0  0  0
   43.6032   52.5919   62.2589 C   0  0  0  0  0  0  0  0  0  0  0  0
   45.7625   51.9822   62.4296 C   0  0  0  0  0  0  0  0  0  0  0  0
   44.9128   53.6403   63.9879 C   0  0  0  0  0  0  0  0  0  0  0  0
   48.6414   52.7484   66.7733 C   0  0  0  0  0  0  0  0  0  0  0  0
   47.1443   52.9053   68.7473 C   0  0  0  0  0  0  0  0  0  0  0  0
   45.9896   52.8077   63.5448 C   0  0  0  0  0  0  0  0  0  0  0  0
   48.8795   54.6238   68.2484 C   0  0  0  0  0  0  0  0  0  0  0  0
   47.9858   51.7108   64.5354 C   0  0  0  0  0  0  0  0  0  0  0  0
   45.0060   54.4881   65.1792 C   0  0  0  0  0  0  0  0  0  0  0  0
   44.1133   51.4997   71.6010 C   0  0  0  0  0  0  0  0  0  0  0  0
   43.7590   49.4597   70.0603 C   0  0  0  0  0  0  0  0  0  0  0  0
   49.1195   51.9347   65.5257 C   0  0  0  0  0  0  0  0  0  0  0  0
   45.3812   51.2528   69.3392 C   0  0  0  0  0  0  0  0  0  0  0  0
   44.7539   50.5411   70.5650 C   0  0  0  0  0  0  0  0  0  0  0  0
   49.7500   56.0553   68.7761 Cl  0  0  0  0  0  0  0  0  0  0  0  0
   43.0080   54.2452   63.6222 H   0  0  0  0  0  0  0  0  0  0  0  0
   46.9655   51.4183   67.0966 H   0  0  0  0  0  0  0  0  0  0  0  0
   49.9702   54.4351   66.4731 H   0  0  0  0  0  0  0  0  0  0  0  0
   47.8644   54.5612   70.0610 H   0  0  0  0  0  0  0  0  0  0  0  0
   42.6284   52.6404   61.7659 H   0  0  0  0  0  0  0  0  0  0  0  0
   46.6178   51.3594   62.2031 H   0  0  0  0  0  0  0  0  0  0  0  0
   44.1417   55.1199   65.4448 H   0  0  0  0  0  0  0  0  0  0  0  0
   45.2413   53.7996   65.9876 H   0  0  0  0  0  0  0  0  0  0  0  0
   45.7773   55.2052   64.8789 H   0  0  0  0  0  0  0  0  0  0  0  0
   44.8492   52.1691   72.0692 H   0  0  0  0  0  0  0  0  0  0  0  0
   43.5872   50.9528   72.3936 H   0  0  0  0  0  0  0  0  0  0  0  0
   43.3596   52.0998   71.0804 H   0  0  0  0  0  0  0  0  0  0  0  0
   43.4698   48.8615   70.9326 H   0  0  0  0  0  0  0  0  0  0  0  0
   44.0955   48.7837   69.2686 H   0  0  0  0  0  0  0  0  0  0  0  0
   42.7906   49.9114   69.8507 H   0  0  0  0  0  0  0  0  0  0  0  0
   49.9020   52.5896   65.1224 H   0  0  0  0  0  0  0  0  0  0  0  0
   49.4271   50.9712   65.9448 H   0  0  0  0  0  0  0  0  0  0  0  0
   44.5160   51.6166   68.7784 H   0  0  0  0  0  0  0  0  0  0  0  0
   45.9474   50.4894   68.7871 H   0  0  0  0  0  0  0  0  0  0  0  0
   47.4732   53.6813   64.6476 H   0  0  0  0  0  0  0  0  0  0  0  0
   45.8957   52.9653   70.4007 H   0  0  0  0  0  0  0  0  0  0  0  0
  1  2  1  0  0  0  0
  1 24  1  0  0  0  0
  4 11  1  0  0  0  0
  4 13  1  0  0  0  0
  4 26  1  0  0  0  0
  6 14  1  0  0  0  0
  6 15  1  0  0  0  0
  6 27  1  0  0  0  0
  7 45  1  0  0  0  0
  8 14  1  0  0  0  0
  8 17  1  0  0  0  0
  8 28  1  0  0  0  0
  9 46  1  0  0  0  0
 10 15  1  0  0  0  0
 10 17  1  0  0  0  0
 10 29  1  0  0  0  0
  5 11  1  0  0  0  0
 11 30  1  0  0  0  0
  5 12  1  0  0  0  0
 12 16  1  0  0  0  0
 12 31  1  0  0  0  0
 13 16  1  0  0  0  0
 13 19  1  0  0  0  0
 14 22  1  0  0  0  0
  9 15  1  0  0  0  0
  7 16  1  0  0  0  0
 17 25  1  0  0  0  0
  3 18  1  0  0  0  0
  7 18  1  0  0  0  0
 18 22  1  0  0  0  0
 19 32  1  0  0  0  0
 19 33  1  0  0  0  0
 19 34  1  0  0  0  0
 20 24  1  0  0  0  0
 20 35  1  0  0  0  0
 20 36  1  0  0  0  0
 20 37  1  0  0  0  0
 21 24  1  0  0  0  0
 21 38  1  0  0  0  0
 21 39  1  0  0  0  0
 21 40  1  0  0  0  0
 22 41  1  0  0  0  0
 22 42  1  0  0  0  0
  9 23  1  0  0  0  0
 23 24  1  0  0  0  0
 23 43  1  0  0  0  0
 23 44  1  0  0  0  0
M  END
>  <pdb_header>
REMARK   1 CREATED WITH MDTraj 1.9.4, 2020-08-14
CRYST1   96.948   96.948   96.948  90.00  90.00  90.00 P 1           1 


$$$$
EN300-650549-neutral-primary_aminebackwards
  PyMOL2.3          3D                             0

 47 48  0  0  0  0  0  0  0  0999 V2000
   48.2820   54.3993   68.5335 C   0  0  0  0  0  0  0  0  0  0  0  0
   42.8883   51.9864   59.9319 N   0  0  0  0  0  0  0  0  0  0  0  0
   46.0262   54.8009   68.8433 O   0  0  0  0  0  0  0  0  0  0  0  0
   49.0555   54.0550   67.6416 C   0  0  0  0  0  0  0  0  0  0  0  0
   43.9365   52.3451   63.3495 N   0  0  0  0  0  0  0  0  0  0  0  0
   43.1941   50.1818   63.6048 O   0  0  0  0  0  0  0  0  0  0  0  0
   41.8286   53.9363   60.9255 C   0  0  0  0  0  0  0  0  0  0  0  0
   49.1244   53.3230   65.3918 N   0  0  0  0  0  0  0  0  0  0  0  0
   47.4831   54.8673   70.6118 O   0  0  0  0  0  0  0  0  0  0  0  0
   46.9300   52.1713   65.4101 C   0  0  0  0  0  0  0  0  0  0  0  0
   46.8254   49.8532   64.7869 C   0  0  0  0  0  0  0  0  0  0  0  0
   48.8712   51.0075   64.8536 C   0  0  0  0  0  0  0  0  0  0  0  0
   42.1173   53.0962   59.8776 C   0  0  0  0  0  0  0  0  0  0  0  0
   43.3644   51.6763   61.1233 C   0  0  0  0  0  0  0  0  0  0  0  0
   42.4624   53.7628   62.1496 C   0  0  0  0  0  0  0  0  0  0  0  0
   46.1687   51.0279   65.2282 C   0  0  0  0  0  0  0  0  0  0  0  0
   48.2986   52.1973   65.2449 C   0  0  0  0  0  0  0  0  0  0  0  0
   43.2673   52.5722   62.2101 C   0  0  0  0  0  0  0  0  0  0  0  0
   48.1940   49.8360   64.6065 C   0  0  0  0  0  0  0  0  0  0  0  0
   47.1698   54.6808   69.3730 C   0  0  0  0  0  0  0  0  0  0  0  0
   43.8097   51.1933   64.0713 C   0  0  0  0  0  0  0  0  0  0  0  0
   42.2536   54.7306   63.3284 C   0  0  0  0  0  0  0  0  0  0  0  0
   46.8653   54.9270   72.8861 C   0  0  0  0  0  0  0  0  0  0  0  0
   49.9030   53.5634   66.5892 C   0  0  0  0  0  0  0  0  0  0  0  0
   44.6746   51.0078   65.3962 C   0  0  0  0  0  0  0  0  0  0  0  0
   46.4995   55.4227   71.4948 C   0  0  0  0  0  0  0  0  0  0  0  0
   48.9785   48.3324   64.0879 Cl  0  0  0  0  0  0  0  0  0  0  0  0
   41.1166   54.7322   60.7509 H   0  0  0  0  0  0  0  0  0  0  0  0
   46.4352   53.0765   65.7496 H   0  0  0  0  0  0  0  0  0  0  0  0
   46.3527   48.9007   64.5683 H   0  0  0  0  0  0  0  0  0  0  0  0
   49.9632   51.0085   64.8057 H   0  0  0  0  0  0  0  0  0  0  0  0
   41.8266   53.5278   58.9207 H   0  0  0  0  0  0  0  0  0  0  0  0
   43.9802   50.7832   61.1526 H   0  0  0  0  0  0  0  0  0  0  0  0
   41.2839   55.2279   63.2337 H   0  0  0  0  0  0  0  0  0  0  0  0
   42.2824   54.1877   64.2792 H   0  0  0  0  0  0  0  0  0  0  0  0
   43.0186   55.5154   63.2535 H   0  0  0  0  0  0  0  0  0  0  0  0
   46.4462   53.9604   73.1772 H   0  0  0  0  0  0  0  0  0  0  0  0
   47.9334   54.9471   73.0878 H   0  0  0  0  0  0  0  0  0  0  0  0
   46.4766   55.5740   73.6731 H   0  0  0  0  0  0  0  0  0  0  0  0
   50.2830   52.6229   67.0116 H   0  0  0  0  0  0  0  0  0  0  0  0
   50.7279   54.2739   66.4624 H   0  0  0  0  0  0  0  0  0  0  0  0
   44.3336   50.0984   65.8939 H   0  0  0  0  0  0  0  0  0  0  0  0
   44.4397   51.7819   66.1305 H   0  0  0  0  0  0  0  0  0  0  0  0
   45.5114   55.0111   71.2426 H   0  0  0  0  0  0  0  0  0  0  0  0
   46.5352   56.5121   71.5064 H   0  0  0  0  0  0  0  0  0  0  0  0
   44.1825   53.1536   63.9268 H   0  0  0  0  0  0  0  0  0  0  0  0
   48.8834   54.1546   64.8580 H   0  0  0  0  0  0  0  0  0  0  0  0
  1  4  1  0  0  0  0
  1 20  1  0  0  0  0
  4 24  1  0  0  0  0
  5 46  1  0  0  0  0
  7 13  1  0  0  0  0
  7 15  1  0  0  0  0
  7 28  1  0  0  0  0
  8 47  1  0  0  0  0
 10 16  1  0  0  0  0
 10 17  1  0  0  0  0
 10 29  1  0  0  0  0
 11 16  1  0  0  0  0
 11 19  1  0  0  0  0
 11 30  1  0  0  0  0
 12 17  1  0  0  0  0
 12 19  1  0  0  0  0
 12 31  1  0  0  0  0
  2 13  1  0  0  0  0
 13 32  1  0  0  0  0
  2 14  1  0  0  0  0
 14 18  1  0  0  0  0
 14 33  1  0  0  0  0
 15 18  1  0  0  0  0
 15 22  1  0  0  0  0
 16 25  1  0  0  0  0
  8 17  1  0  0  0  0
  5 18  1  0  0  0  0
 19 27  1  0  0  0  0
  3 20  1  0  0  0  0
  9 20  1  0  0  0  0
  5 21  1  0  0  0  0
  6 21  1  0  0  0  0
 21 25  1  0  0  0  0
 22 34  1  0  0  0  0
 22 35  1  0  0  0  0
 22 36  1  0  0  0  0
 23 26  1  0  0  0  0
 23 37  1  0  0  0  0
 23 38  1  0  0  0  0
 23 39  1  0  0  0  0
  8 24  1  0  0  0  0
 24 40  1  0  0  0  0
 24 41  1  0  0  0  0
 25 42  1  0  0  0  0
 25 43  1  0  0  0  0
  9 26  1  0  0  0  0
 26 44  1  0  0  0  0
 26 45  1  0  0  0  0
M  END
>  <pdb_header>
REMARK   1 CREATED WITH MDTraj 1.9.4, 2020-08-14
CRYST1   96.861   96.861   96.861  90.00  90.00  90.00 P 1           1 


$$$$
EN300-153078-neutral-primary_aminebackwards
  PyMOL2.3          3D                             0

 62 65  0  0  0  0  0  0  0  0999 V2000
   41.7860   52.7981   62.8607 C   0  0  0  0  0  0  0  0  0  0  0  0
   43.4894   52.0830   61.4334 N   0  0  0  0  0  0  0  0  0  0  0  0
   46.7297   52.4847   64.1171 O   0  0  0  0  0  0  0  0  0  0  0  0
   46.3301   54.0768   67.5354 C   0  0  0  0  0  0  0  0  0  0  0  0
   44.6990   52.2673   65.0032 N   0  0  0  0  0  0  0  0  0  0  0  0
   48.0523   56.4840   67.4867 O   0  0  0  0  0  0  0  0  0  0  0  0
   46.2901   52.0678   68.8918 C   0  0  0  0  0  0  0  0  0  0  0  0
   46.0302   56.2492   68.4694 N   0  0  0  0  0  0  0  0  0  0  0  0
   46.3867   58.0917   66.9880 O   0  0  0  0  0  0  0  0  0  0  0  0
   46.0722   54.2276   69.8959 C   0  0  0  0  0  0  0  0  0  0  0  0
   42.0556   58.3902   70.1664 N   0  0  0  0  0  0  0  0  0  0  0  0
   42.2402   52.4127   61.5878 C   0  0  0  0  0  0  0  0  0  0  0  0
   44.2857   52.0873   62.6138 C   0  0  0  0  0  0  0  0  0  0  0  0
   42.5460   52.8798   64.0191 C   0  0  0  0  0  0  0  0  0  0  0  0
   46.4569   52.6465   67.6183 C   0  0  0  0  0  0  0  0  0  0  0  0
   46.1200   54.8428   68.6470 C   0  0  0  0  0  0  0  0  0  0  0  0
   43.8557   52.4196   63.8874 C   0  0  0  0  0  0  0  0  0  0  0  0
   46.1006   52.8700   70.0330 C   0  0  0  0  0  0  0  0  0  0  0  0
   46.0720   52.2802   65.1223 C   0  0  0  0  0  0  0  0  0  0  0  0
   46.9219   56.9698   67.6588 C   0  0  0  0  0  0  0  0  0  0  0  0
   43.8644   56.4226   70.1189 C   0  0  0  0  0  0  0  0  0  0  0  0
   43.6764   57.3511   68.1368 C   0  0  0  0  0  0  0  0  0  0  0  0
   44.7768   58.3164   69.8295 C   0  0  0  0  0  0  0  0  0  0  0  0
   44.8702   57.0222   69.0317 C   0  0  0  0  0  0  0  0  0  0  0  0
   43.3059   57.7472   69.6361 C   0  0  0  0  0  0  0  0  0  0  0  0
   42.0321   53.5130   65.2811 C   0  0  0  0  0  0  0  0  0  0  0  0
   48.1928   59.6927   66.4689 C   0  0  0  0  0  0  0  0  0  0  0  0
   47.5236   57.7724   64.9396 C   0  0  0  0  0  0  0  0  0  0  0  0
   46.0399   59.7302   65.1757 C   0  0  0  0  0  0  0  0  0  0  0  0
   46.7587   51.8316   66.3436 C   0  0  0  0  0  0  0  0  0  0  0  0
   47.0789   58.8397   65.9849 C   0  0  0  0  0  0  0  0  0  0  0  0
   46.1673   52.1334   71.5738 Cl  0  0  0  0  0  0  0  0  0  0  0  0
   40.7765   53.1943   62.9093 H   0  0  0  0  0  0  0  0  0  0  0  0
   46.2900   54.5270   66.5494 H   0  0  0  0  0  0  0  0  0  0  0  0
   46.2650   50.9840   68.9040 H   0  0  0  0  0  0  0  0  0  0  0  0
   45.9150   54.8434   70.7787 H   0  0  0  0  0  0  0  0  0  0  0  0
   41.5948   52.2606   60.7233 H   0  0  0  0  0  0  0  0  0  0  0  0
   45.2126   51.5779   62.3989 H   0  0  0  0  0  0  0  0  0  0  0  0
   43.1838   55.6025   69.8856 H   0  0  0  0  0  0  0  0  0  0  0  0
   44.2496   56.3431   71.1461 H   0  0  0  0  0  0  0  0  0  0  0  0
   43.1766   56.4753   67.7104 H   0  0  0  0  0  0  0  0  0  0  0  0
   43.8931   58.1402   67.4107 H   0  0  0  0  0  0  0  0  0  0  0  0
   45.2141   58.3829   70.8350 H   0  0  0  0  0  0  0  0  0  0  0  0
   45.0671   59.2532   69.3421 H   0  0  0  0  0  0  0  0  0  0  0  0
   40.9637   53.7318   65.1982 H   0  0  0  0  0  0  0  0  0  0  0  0
   42.2033   52.8914   66.1756 H   0  0  0  0  0  0  0  0  0  0  0  0
   42.6807   54.3835   65.4310 H   0  0  0  0  0  0  0  0  0  0  0  0
   48.5578   60.4002   65.7158 H   0  0  0  0  0  0  0  0  0  0  0  0
   47.7495   60.2865   67.2730 H   0  0  0  0  0  0  0  0  0  0  0  0
   48.9350   59.2190   67.1172 H   0  0  0  0  0  0  0  0  0  0  0  0
   46.7328   57.0875   64.6143 H   0  0  0  0  0  0  0  0  0  0  0  0
   48.2794   57.0869   65.3297 H   0  0  0  0  0  0  0  0  0  0  0  0
   47.8989   58.2792   64.0456 H   0  0  0  0  0  0  0  0  0  0  0  0
   45.3861   59.0374   64.6430 H   0  0  0  0  0  0  0  0  0  0  0  0
   45.5744   60.3792   65.9244 H   0  0  0  0  0  0  0  0  0  0  0  0
   46.5755   60.2415   64.3644 H   0  0  0  0  0  0  0  0  0  0  0  0
   47.8306   51.5931   66.2247 H   0  0  0  0  0  0  0  0  0  0  0  0
   46.4632   50.7821   66.4444 H   0  0  0  0  0  0  0  0  0  0  0  0
   44.1885   52.1303   65.8810 H   0  0  0  0  0  0  0  0  0  0  0  0
   42.2036   59.3950   70.0605 H   0  0  0  0  0  0  0  0  0  0  0  0
   41.9711   58.1925   71.1741 H   0  0  0  0  0  0  0  0  0  0  0  0
   41.1777   58.0512   69.7801 H   0  0  0  0  0  0  0  0  0  0  0  0
  1 12  1  0  0  0  0
  1 14  1  0  0  0  0
  1 33  1  0  0  0  0
  4 15  1  0  0  0  0
  4 16  1  0  0  0  0
  4 34  1  0  0  0  0
  5 59  1  0  0  0  0
  7 15  1  0  0  0  0
  7 18  1  0  0  0  0
  7 35  1  0  0  0  0
 10 16  1  0  0  0  0
 10 18  1  0  0  0  0
 10 36  1  0  0  0  0
 11 60  1  0  0  0  0
 11 61  1  0  0  0  0
 11 62  1  0  0  0  0
  2 12  1  0  0  0  0
 12 37  1  0  0  0  0
  2 13  1  0  0  0  0
 13 17  1  0  0  0  0
 13 38  1  0  0  0  0
 14 17  1  0  0  0  0
 14 26  1  0  0  0  0
 15 30  1  0  0  0  0
  8 16  1  0  0  0  0
  5 17  1  0  0  0  0
 18 32  1  0  0  0  0
  3 19  1  0  0  0  0
  5 19  1  0  0  0  0
 19 30  1  0  0  0  0
  6 20  1  0  0  0  0
  8 20  1  0  0  0  0
  9 20  1  0  0  0  0
 21 24  1  0  0  0  0
 21 25  1  0  0  0  0
 21 39  1  0  0  0  0
 21 40  1  0  0  0  0
 22 24  1  0  0  0  0
 22 25  1  0  0  0  0
 22 41  1  0  0  0  0
 22 42  1  0  0  0  0
 23 24  1  0  0  0  0
 23 25  1  0  0  0  0
 23 43  1  0  0  0  0
 23 44  1  0  0  0  0
  8 24  1  0  0  0  0
 11 25  1  0  0  0  0
 26 45  1  0  0  0  0
 26 46  1  0  0  0  0
 26 47  1  0  0  0  0
 27 31  1  0  0  0  0
 27 48  1  0  0  0  0
 27 49  1  0  0  0  0
 27 50  1  0  0  0  0
 28 31  1  0  0  0  0
 28 51  1  0  0  0  0
 28 52  1  0  0  0  0
 28 53  1  0  0  0  0
 29 31  1  0  0  0  0
 29 54  1  0  0  0  0
 29 55  1  0  0  0  0
 29 56  1  0  0  0  0
 30 57  1  0  0  0  0
 30 58  1  0  0  0  0
  9 31  1  0  0  0  0
M  END
>  <pdb_header>
REMARK   1 CREATED WITH MDTraj 1.9.4, 2020-08-14
CRYST1   96.955   96.955   96.955  90.00  90.00  90.00 P 1           1 


$$$$
EN300-7430703-neutral-primary_aminebackwards
  PyMOL2.3          3D                             0

 48 50  0  0  0  0  0  0  0  0999 V2000
   47.4073   58.3067   65.6685 C   0  0  0  0  0  0  0  0  0  0  0  0
   42.5985   52.3897   60.0496 N   0  0  0  0  0  0  0  0  0  0  0  0
   44.6132   51.0986   63.5710 O   0  0  0  0  0  0  0  0  0  0  0  0
   47.7504   57.0311   66.1619 C   0  0  0  0  0  0  0  0  0  0  0  0
   49.8122   57.0050   64.9238 N   0  0  0  0  0  0  0  0  0  0  0  0
   41.2323   54.0900   61.1432 C   0  0  0  0  0  0  0  0  0  0  0  0
   49.2546   55.1957   66.2930 N   0  0  0  0  0  0  0  0  0  0  0  0
   47.1999   53.9247   65.7256 C   0  0  0  0  0  0  0  0  0  0  0  0
   43.9019   53.3008   63.4658 N   0  0  0  0  0  0  0  0  0  0  0  0
   47.4110   51.5180   65.2149 C   0  0  0  0  0  0  0  0  0  0  0  0
   49.3728   52.8296   65.6792 C   0  0  0  0  0  0  0  0  0  0  0  0
   41.5965   53.2496   60.0055 C   0  0  0  0  0  0  0  0  0  0  0  0
   49.2668   58.0450   64.2742 C   0  0  0  0  0  0  0  0  0  0  0  0
   43.3621   52.3821   61.1810 C   0  0  0  0  0  0  0  0  0  0  0  0
   48.1392   58.8058   64.6729 C   0  0  0  0  0  0  0  0  0  0  0  0
   41.9470   54.0616   62.3025 C   0  0  0  0  0  0  0  0  0  0  0  0
   46.6160   52.6159   65.4936 C   0  0  0  0  0  0  0  0  0  0  0  0
   48.5860   53.9902   65.9616 C   0  0  0  0  0  0  0  0  0  0  0  0
   43.0987   53.2022   62.3293 C   0  0  0  0  0  0  0  0  0  0  0  0
   48.8010   51.6233   65.1448 C   0  0  0  0  0  0  0  0  0  0  0  0
   48.9378   56.4617   65.7954 C   0  0  0  0  0  0  0  0  0  0  0  0
   44.6270   52.2902   64.0291 C   0  0  0  0  0  0  0  0  0  0  0  0
   41.6078   54.9691   63.4907 C   0  0  0  0  0  0  0  0  0  0  0  0
   46.5061   59.8986   62.9033 C   0  0  0  0  0  0  0  0  0  0  0  0
   45.1167   52.5394   65.4805 C   0  0  0  0  0  0  0  0  0  0  0  0
   47.6966   60.0191   63.8885 C   0  0  0  0  0  0  0  0  0  0  0  0
   49.7161   50.2644   64.6889 Cl  0  0  0  0  0  0  0  0  0  0  0  0
   48.8799   60.4547   63.3394 F   0  0  0  0  0  0  0  0  0  0  0  0
   47.3634   61.0323   64.6802 F   0  0  0  0  0  0  0  0  0  0  0  0
   46.4964   58.7827   66.0263 H   0  0  0  0  0  0  0  0  0  0  0  0
   47.1529   56.5935   66.9518 H   0  0  0  0  0  0  0  0  0  0  0  0
   40.3613   54.7244   61.0530 H   0  0  0  0  0  0  0  0  0  0  0  0
   46.6538   54.8687   65.6745 H   0  0  0  0  0  0  0  0  0  0  0  0
   46.8744   50.5901   65.0266 H   0  0  0  0  0  0  0  0  0  0  0  0
   50.4358   52.9347   65.8029 H   0  0  0  0  0  0  0  0  0  0  0  0
   40.9744   53.3071   59.1217 H   0  0  0  0  0  0  0  0  0  0  0  0
   49.5899   58.3234   63.2738 H   0  0  0  0  0  0  0  0  0  0  0  0
   44.1885   51.6811   61.1442 H   0  0  0  0  0  0  0  0  0  0  0  0
   41.4510   54.4195   64.4370 H   0  0  0  0  0  0  0  0  0  0  0  0
   42.3241   55.7853   63.4380 H   0  0  0  0  0  0  0  0  0  0  0  0
   40.6778   55.5053   63.3034 H   0  0  0  0  0  0  0  0  0  0  0  0
   46.6513   59.0842   62.1955 H   0  0  0  0  0  0  0  0  0  0  0  0
   46.2072   60.8439   62.4415 H   0  0  0  0  0  0  0  0  0  0  0  0
   45.6341   59.5926   63.4841 H   0  0  0  0  0  0  0  0  0  0  0  0
   44.6675   51.7125   66.0402 H   0  0  0  0  0  0  0  0  0  0  0  0
   44.6901   53.4813   65.8497 H   0  0  0  0  0  0  0  0  0  0  0  0
   50.2803   55.1469   66.3448 H   0  0  0  0  0  0  0  0  0  0  0  0
   44.0294   54.2624   63.7800 H   0  0  0  0  0  0  0  0  0  0  0  0
  1  4  1  0  0  0  0
  1 15  1  0  0  0  0
  1 30  1  0  0  0  0
  4 21  1  0  0  0  0
  4 31  1  0  0  0  0
  6 12  1  0  0  0  0
  6 16  1  0  0  0  0
  6 32  1  0  0  0  0
  7 47  1  0  0  0  0
  8 17  1  0  0  0  0
  8 18  1  0  0  0  0
  8 33  1  0  0  0  0
  9 48  1  0  0  0  0
 10 17  1  0  0  0  0
 10 20  1  0  0  0  0
 10 34  1  0  0  0  0
 11 18  1  0  0  0  0
 11 20  1  0  0  0  0
 11 35  1  0  0  0  0
  2 12  1  0  0  0  0
 12 36  1  0  0  0  0
  5 13  1  0  0  0  0
 13 15  1  0  0  0  0
 13 37  1  0  0  0  0
  2 14  1  0  0  0  0
 14 19  1  0  0  0  0
 14 38  1  0  0  0  0
 15 26  1  0  0  0  0
 16 19  1  0  0  0  0
 16 23  1  0  0  0  0
 17 25  1  0  0  0  0
  7 18  1  0  0  0  0
  9 19  1  0  0  0  0
 20 27  1  0  0  0  0
  5 21  1  0  0  0  0
  7 21  1  0  0  0  0
  3 22  1  0  0  0  0
  9 22  1  0  0  0  0
 22 25  1  0  0  0  0
 23 39  1  0  0  0  0
 23 40  1  0  0  0  0
 23 41  1  0  0  0  0
 24 26  1  0  0  0  0
 24 42  1  0  0  0  0
 24 43  1  0  0  0  0
 24 44  1  0  0  0  0
 25 45  1  0  0  0  0
 25 46  1  0  0  0  0
 26 28  1  0  0  0  0
 26 29  1  0  0  0  0
M  END
>  <pdb_header>
REMARK   1 CREATED WITH MDTraj 1.9.4, 2020-08-14
CRYST1   97.028   97.028   97.028  90.00  90.00  90.00 P 1           1 


$$$$
EN300-6512862-neutral-primary_aminebackwards
  PyMOL2.3          3D                             0

 55 58  0  0  0  0  0  0  0  0999 V2000
   41.2881   53.2512   63.1067 C   0  0  0  0  0  0  0  0  0  0  0  0
   42.5999   51.8319   61.6649 N   0  0  0  0  0  0  0  0  0  0  0  0
   46.2443   52.0739   63.6694 O   0  0  0  0  0  0  0  0  0  0  0  0
   47.1730   54.1123   66.2431 C   0  0  0  0  0  0  0  0  0  0  0  0
   44.3480   52.3031   64.9368 N   0  0  0  0  0  0  0  0  0  0  0  0
   44.3480   57.6419   67.4505 O   0  0  0  0  0  0  0  0  0  0  0  0
   48.7775   52.5156   66.8924 C   0  0  0  0  0  0  0  0  0  0  0  0
   47.6481   56.4553   66.8462 N   0  0  0  0  0  0  0  0  0  0  0  0
   43.9382   60.1816   65.7151 O   0  0  0  0  0  0  0  0  0  0  0  0
   49.2615   54.8350   67.2185 C   0  0  0  0  0  0  0  0  0  0  0  0
   41.5214   52.5947   61.9169 C   0  0  0  0  0  0  0  0  0  0  0  0
   43.4842   51.7661   62.7358 C   0  0  0  0  0  0  0  0  0  0  0  0
   42.2709   53.2895   64.0907 C   0  0  0  0  0  0  0  0  0  0  0  0
   47.4979   52.7559   66.3885 C   0  0  0  0  0  0  0  0  0  0  0  0
   47.9455   55.1049   66.7823 C   0  0  0  0  0  0  0  0  0  0  0  0
   43.3473   52.3915   63.9645 C   0  0  0  0  0  0  0  0  0  0  0  0
   49.7326   53.5193   67.3242 C   0  0  0  0  0  0  0  0  0  0  0  0
   45.7078   52.0117   64.7951 C   0  0  0  0  0  0  0  0  0  0  0  0
   45.3699   56.6239   65.5916 C   0  0  0  0  0  0  0  0  0  0  0  0
   46.1744   58.4389   66.1895 C   0  0  0  0  0  0  0  0  0  0  0  0
   46.3041   57.0137   66.7203 C   0  0  0  0  0  0  0  0  0  0  0  0
   44.7389   57.9708   66.1151 C   0  0  0  0  0  0  0  0  0  0  0  0
   45.3739   56.9019   67.9451 C   0  0  0  0  0  0  0  0  0  0  0  0
   42.1630   54.2560   65.2095 C   0  0  0  0  0  0  0  0  0  0  0  0
   45.9359   57.5710   69.2355 C   0  0  0  0  0  0  0  0  0  0  0  0
   44.7915   55.5061   68.3899 C   0  0  0  0  0  0  0  0  0  0  0  0
   46.6594   51.6299   65.9784 C   0  0  0  0  0  0  0  0  0  0  0  0
   43.8789   58.8438   65.2384 C   0  0  0  0  0  0  0  0  0  0  0  0
   51.3194   53.1904   67.9820 Cl  0  0  0  0  0  0  0  0  0  0  0  0
   40.4376   53.8767   63.3644 H   0  0  0  0  0  0  0  0  0  0  0  0
   46.2670   54.4499   65.7411 H   0  0  0  0  0  0  0  0  0  0  0  0
   49.0826   51.4775   66.9970 H   0  0  0  0  0  0  0  0  0  0  0  0
   49.9201   55.6414   67.5240 H   0  0  0  0  0  0  0  0  0  0  0  0
   40.8186   52.5084   61.0839 H   0  0  0  0  0  0  0  0  0  0  0  0
   44.4039   51.2158   62.5385 H   0  0  0  0  0  0  0  0  0  0  0  0
   45.8154   56.6290   64.5866 H   0  0  0  0  0  0  0  0  0  0  0  0
   44.7128   55.7836   65.8329 H   0  0  0  0  0  0  0  0  0  0  0  0
   46.4160   59.2497   66.8798 H   0  0  0  0  0  0  0  0  0  0  0  0
   46.6922   58.5448   65.2295 H   0  0  0  0  0  0  0  0  0  0  0  0
   41.0998   54.4729   65.3190 H   0  0  0  0  0  0  0  0  0  0  0  0
   42.5705   53.8110   66.1219 H   0  0  0  0  0  0  0  0  0  0  0  0
   42.6348   55.2213   65.0086 H   0  0  0  0  0  0  0  0  0  0  0  0
   45.1525   57.8255   69.9424 H   0  0  0  0  0  0  0  0  0  0  0  0
   46.3356   58.5379   68.9066 H   0  0  0  0  0  0  0  0  0  0  0  0
   46.7614   57.0395   69.7053 H   0  0  0  0  0  0  0  0  0  0  0  0
   44.3327   55.5740   69.3706 H   0  0  0  0  0  0  0  0  0  0  0  0
   45.6326   54.8082   68.5159 H   0  0  0  0  0  0  0  0  0  0  0  0
   44.0374   55.1343   67.6896 H   0  0  0  0  0  0  0  0  0  0  0  0
   47.2917   50.7909   65.6673 H   0  0  0  0  0  0  0  0  0  0  0  0
   46.0494   51.3832   66.8619 H   0  0  0  0  0  0  0  0  0  0  0  0
   42.8342   58.5339   65.1663 H   0  0  0  0  0  0  0  0  0  0  0  0
   44.2697   58.7528   64.2253 H   0  0  0  0  0  0  0  0  0  0  0  0
   44.0784   52.5112   65.9019 H   0  0  0  0  0  0  0  0  0  0  0  0
   48.1368   56.9948   67.5577 H   0  0  0  0  0  0  0  0  0  0  0  0
   43.9742   60.2302   66.6841 H   0  0  0  0  0  0  0  0  0  0  0  0
  1 11  1  0  0  0  0
  1 13  1  0  0  0  0
  1 30  1  0  0  0  0
  4 14  1  0  0  0  0
  4 15  1  0  0  0  0
  4 31  1  0  0  0  0
  5 53  1  0  0  0  0
  7 14  1  0  0  0  0
  7 17  1  0  0  0  0
  7 32  1  0  0  0  0
  8 54  1  0  0  0  0
  9 55  1  0  0  0  0
 10 15  1  0  0  0  0
 10 17  1  0  0  0  0
 10 33  1  0  0  0  0
  2 11  1  0  0  0  0
 11 34  1  0  0  0  0
  2 12  1  0  0  0  0
 12 16  1  0  0  0  0
 12 35  1  0  0  0  0
 13 16  1  0  0  0  0
 13 24  1  0  0  0  0
 14 27  1  0  0  0  0
  8 15  1  0  0  0  0
  5 16  1  0  0  0  0
 17 29  1  0  0  0  0
  3 18  1  0  0  0  0
  5 18  1  0  0  0  0
 18 27  1  0  0  0  0
 19 21  1  0  0  0  0
 19 22  1  0  0  0  0
 19 36  1  0  0  0  0
 19 37  1  0  0  0  0
 20 21  1  0  0  0  0
 20 22  1  0  0  0  0
 20 38  1  0  0  0  0
 20 39  1  0  0  0  0
  8 21  1  0  0  0  0
 21 23  1  0  0  0  0
  6 22  1  0  0  0  0
 22 28  1  0  0  0  0
  6 23  1  0  0  0  0
 23 25  1  0  0  0  0
 23 26  1  0  0  0  0
 24 40  1  0  0  0  0
 24 41  1  0  0  0  0
 24 42  1  0  0  0  0
 25 43  1  0  0  0  0
 25 44  1  0  0  0  0
 25 45  1  0  0  0  0
 26 46  1  0  0  0  0
 26 47  1  0  0  0  0
 26 48  1  0  0  0  0
 27 49  1  0  0  0  0
 27 50  1  0  0  0  0
  9 28  1  0  0  0  0
 28 51  1  0  0  0  0
 28 52  1  0  0  0  0
M  END
>  <pdb_header>
REMARK   1 CREATED WITH MDTraj 1.9.4, 2020-08-14
CRYST1   96.895   96.895   96.895  90.00  90.00  90.00 P 1           1 


$$$$
EN300-365363-neutral-primary_aminebackwards
  PyMOL2.3          3D                             0

 48 51  0  0  0  0  0  0  0  0999 V2000
   41.2281   53.7124   61.7683 C   0  0  0  0  0  0  0  0  0  0  0  0
   42.3016   51.8382   60.6964 N   0  0  0  0  0  0  0  0  0  0  0  0
   44.4009   50.8408   64.3129 O   0  0  0  0  0  0  0  0  0  0  0  0
   48.2549   60.3602   64.0951 S   0  0  0  0  0  0  0  0  0  0  0  0
   47.2055   53.9548   66.2211 C   0  0  0  0  0  0  0  0  0  0  0  0
   44.3255   52.9839   63.6507 N   0  0  0  0  0  0  0  0  0  0  0  0
   47.6598   51.7648   65.3965 C   0  0  0  0  0  0  0  0  0  0  0  0
   48.8922   55.6080   66.4406 N   0  0  0  0  0  0  0  0  0  0  0  0
   49.4751   53.2711   65.6819 C   0  0  0  0  0  0  0  0  0  0  0  0
   41.3611   52.7129   60.7771 C   0  0  0  0  0  0  0  0  0  0  0  0
   43.3020   51.9750   61.5909 C   0  0  0  0  0  0  0  0  0  0  0  0
   42.2666   53.8463   62.7578 C   0  0  0  0  0  0  0  0  0  0  0  0
   46.7122   52.6978   65.8217 C   0  0  0  0  0  0  0  0  0  0  0  0
   48.5515   54.3253   66.0865 C   0  0  0  0  0  0  0  0  0  0  0  0
   43.3074   52.9495   62.6446 C   0  0  0  0  0  0  0  0  0  0  0  0
   48.9690   52.0293   65.2019 C   0  0  0  0  0  0  0  0  0  0  0  0
   44.6873   51.9918   64.5764 C   0  0  0  0  0  0  0  0  0  0  0  0
   50.0073   57.7770   65.7114 C   0  0  0  0  0  0  0  0  0  0  0  0
   48.9677   56.6545   64.1584 C   0  0  0  0  0  0  0  0  0  0  0  0
   47.7978   58.8975   65.0711 C   0  0  0  0  0  0  0  0  0  0  0  0
   49.5756   59.1723   63.7384 C   0  0  0  0  0  0  0  0  0  0  0  0
   49.7584   56.2886   65.4477 C   0  0  0  0  0  0  0  0  0  0  0  0
   49.0391   58.1159   64.6252 C   0  0  0  0  0  0  0  0  0  0  0  0
   42.1070   54.7787   63.9154 C   0  0  0  0  0  0  0  0  0  0  0  0
   45.2975   52.2888   65.9365 C   0  0  0  0  0  0  0  0  0  0  0  0
   50.0309   50.6987   64.8942 Cl  0  0  0  0  0  0  0  0  0  0  0  0
   40.3304   54.3216   61.7921 H   0  0  0  0  0  0  0  0  0  0  0  0
   46.5901   54.7706   66.5997 H   0  0  0  0  0  0  0  0  0  0  0  0
   47.2266   50.7942   65.1608 H   0  0  0  0  0  0  0  0  0  0  0  0
   50.5249   53.5397   65.6620 H   0  0  0  0  0  0  0  0  0  0  0  0
   40.5790   52.8208   60.0330 H   0  0  0  0  0  0  0  0  0  0  0  0
   44.1451   51.2862   61.6129 H   0  0  0  0  0  0  0  0  0  0  0  0
   49.7182   58.1401   66.7078 H   0  0  0  0  0  0  0  0  0  0  0  0
   51.0497   58.0402   65.5008 H   0  0  0  0  0  0  0  0  0  0  0  0
   49.5882   56.5772   63.2587 H   0  0  0  0  0  0  0  0  0  0  0  0
   47.9904   56.1805   64.0734 H   0  0  0  0  0  0  0  0  0  0  0  0
   47.7942   59.2236   66.1178 H   0  0  0  0  0  0  0  0  0  0  0  0
   46.8235   58.4097   64.9370 H   0  0  0  0  0  0  0  0  0  0  0  0
   49.6070   58.8564   62.6966 H   0  0  0  0  0  0  0  0  0  0  0  0
   50.6131   59.4584   63.9334 H   0  0  0  0  0  0  0  0  0  0  0  0
   50.6735   55.7384   65.2041 H   0  0  0  0  0  0  0  0  0  0  0  0
   41.1906   54.4699   64.4223 H   0  0  0  0  0  0  0  0  0  0  0  0
   42.9286   54.6396   64.6238 H   0  0  0  0  0  0  0  0  0  0  0  0
   42.0183   55.8102   63.5589 H   0  0  0  0  0  0  0  0  0  0  0  0
   45.2823   51.3523   66.4986 H   0  0  0  0  0  0  0  0  0  0  0  0
   44.8095   53.1520   66.4116 H   0  0  0  0  0  0  0  0  0  0  0  0
   44.5464   53.9142   64.0095 H   0  0  0  0  0  0  0  0  0  0  0  0
   48.0672   56.1112   66.7601 H   0  0  0  0  0  0  0  0  0  0  0  0
  1 10  1  0  0  0  0
  1 12  1  0  0  0  0
  1 27  1  0  0  0  0
  5 13  1  0  0  0  0
  5 14  1  0  0  0  0
  5 28  1  0  0  0  0
  6 47  1  0  0  0  0
  7 13  1  0  0  0  0
  7 16  1  0  0  0  0
  7 29  1  0  0  0  0
  8 48  1  0  0  0  0
  9 14  1  0  0  0  0
  9 16  1  0  0  0  0
  9 30  1  0  0  0  0
  2 10  1  0  0  0  0
 10 31  1  0  0  0  0
  2 11  1  0  0  0  0
 11 15  1  0  0  0  0
 11 32  1  0  0  0  0
 12 15  1  0  0  0  0
 12 24  1  0  0  0  0
 13 25  1  0  0  0  0
  8 14  1  0  0  0  0
  6 15  1  0  0  0  0
 16 26  1  0  0  0  0
  3 17  1  0  0  0  0
  6 17  1  0  0  0  0
 17 25  1  0  0  0  0
 18 22  1  0  0  0  0
 18 23  1  0  0  0  0
 18 33  1  0  0  0  0
 18 34  1  0  0  0  0
 19 22  1  0  0  0  0
 19 23  1  0  0  0  0
 19 35  1  0  0  0  0
 19 36  1  0  0  0  0
  4 20  1  0  0  0  0
 20 23  1  0  0  0  0
 20 37  1  0  0  0  0
 20 38  1  0  0  0  0
  4 21  1  0  0  0  0
 21 23  1  0  0  0  0
 21 39  1  0  0  0  0
 21 40  1  0  0  0  0
  8 22  1  0  0  0  0
 22 41  1  0  0  0  0
 24 42  1  0  0  0  0
 24 43  1  0  0  0  0
 24 44  1  0  0  0  0
 25 45  1  0  0  0  0
 25 46  1  0  0  0  0
M  END
>  <pdb_header>
REMARK   1 CREATED WITH MDTraj 1.9.4, 2020-08-14
CRYST1   96.927   96.927   96.927  90.00  90.00  90.00 P 1           1 


$$$$
EN300-201994-neutral-primary_aminebackwards
  PyMOL2.3          3D                             0

 43 45  0  0  0  0  0  0  0  0999 V2000
   41.0125   52.7976   62.0065 C   0  0  0  0  0  0  0  0  0  0  0  0
   43.0214   52.3989   60.7972 N   0  0  0  0  0  0  0  0  0  0  0  0
   45.8438   53.6566   63.5613 O   0  0  0  0  0  0  0  0  0  0  0  0
   47.9638   54.1908   65.5996 C   0  0  0  0  0  0  0  0  0  0  0  0
   43.7933   53.0507   64.4089 N   0  0  0  0  0  0  0  0  0  0  0  0
   48.1371   51.7643   65.4843 C   0  0  0  0  0  0  0  0  0  0  0  0
   50.0636   55.4896   65.4827 N   0  0  0  0  0  0  0  0  0  0  0  0
   50.1550   53.0675   65.3937 C   0  0  0  0  0  0  0  0  0  0  0  0
   41.6926   52.5408   60.8356 C   0  0  0  0  0  0  0  0  0  0  0  0
   43.6479   52.5543   61.9681 C   0  0  0  0  0  0  0  0  0  0  0  0
   41.7006   53.0693   63.2050 C   0  0  0  0  0  0  0  0  0  0  0  0
   47.2768   52.9228   65.7008 C   0  0  0  0  0  0  0  0  0  0  0  0
   49.3951   54.2742   65.4767 C   0  0  0  0  0  0  0  0  0  0  0  0
   43.0997   52.9068   63.1872 C   0  0  0  0  0  0  0  0  0  0  0  0
   49.5359   51.8426   65.3794 C   0  0  0  0  0  0  0  0  0  0  0  0
   45.1315   53.2377   64.5035 C   0  0  0  0  0  0  0  0  0  0  0  0
   48.8363   57.4525   66.3904 C   0  0  0  0  0  0  0  0  0  0  0  0
   50.1752   58.0179   65.8005 C   0  0  0  0  0  0  0  0  0  0  0  0
   49.3980   56.7805   65.1877 C   0  0  0  0  0  0  0  0  0  0  0  0
   40.9053   53.5117   64.4162 C   0  0  0  0  0  0  0  0  0  0  0  0
   45.7801   52.8162   65.8104 C   0  0  0  0  0  0  0  0  0  0  0  0
   48.7382   57.0467   63.7775 C   0  0  0  0  0  0  0  0  0  0  0  0
   50.4752   50.4291   64.9768 Cl  0  0  0  0  0  0  0  0  0  0  0  0
   49.7288   56.8002   62.7901 F   0  0  0  0  0  0  0  0  0  0  0  0
   48.2860   58.3323   63.6369 F   0  0  0  0  0  0  0  0  0  0  0  0
   39.9308   52.9096   61.9478 H   0  0  0  0  0  0  0  0  0  0  0  0
   47.5117   55.1756   65.7341 H   0  0  0  0  0  0  0  0  0  0  0  0
   47.7005   50.7715   65.5649 H   0  0  0  0  0  0  0  0  0  0  0  0
   51.2265   53.1872   65.3170 H   0  0  0  0  0  0  0  0  0  0  0  0
   41.1524   52.4161   59.9007 H   0  0  0  0  0  0  0  0  0  0  0  0
   44.7144   52.3621   61.9932 H   0  0  0  0  0  0  0  0  0  0  0  0
   47.9511   58.0133   66.1025 H   0  0  0  0  0  0  0  0  0  0  0  0
   48.8978   56.9262   67.3499 H   0  0  0  0  0  0  0  0  0  0  0  0
   50.4341   58.5451   64.8790 H   0  0  0  0  0  0  0  0  0  0  0  0
   50.0521   59.0886   65.6020 H   0  0  0  0  0  0  0  0  0  0  0  0
   40.6221   52.8293   65.2164 H   0  0  0  0  0  0  0  0  0  0  0  0
   41.4799   54.2816   64.9310 H   0  0  0  0  0  0  0  0  0  0  0  0
   39.9897   53.9721   64.0394 H   0  0  0  0  0  0  0  0  0  0  0  0
   45.4908   51.8006   66.0936 H   0  0  0  0  0  0  0  0  0  0  0  0
   45.4605   53.4889   66.6103 H   0  0  0  0  0  0  0  0  0  0  0  0
   47.8239   56.4649   63.5772 H   0  0  0  0  0  0  0  0  0  0  0  0
   43.3684   52.6747   65.2528 H   0  0  0  0  0  0  0  0  0  0  0  0
   51.0729   55.5536   65.6059 H   0  0  0  0  0  0  0  0  0  0  0  0
  1  9  1  0  0  0  0
  1 11  1  0  0  0  0
  1 26  1  0  0  0  0
  4 12  1  0  0  0  0
  4 13  1  0  0  0  0
  4 27  1  0  0  0  0
  5 42  1  0  0  0  0
  6 12  1  0  0  0  0
  6 15  1  0  0  0  0
  6 28  1  0  0  0  0
  7 43  1  0  0  0  0
  8 13  1  0  0  0  0
  8 15  1  0  0  0  0
  8 29  1  0  0  0  0
  2  9  1  0  0  0  0
  9 30  1  0  0  0  0
  2 10  1  0  0  0  0
 10 14  1  0  0  0  0
 10 31  1  0  0  0  0
 11 14  1  0  0  0  0
 11 20  1  0  0  0  0
 12 21  1  0  0  0  0
  7 13  1  0  0  0  0
  5 14  1  0  0  0  0
 15 23  1  0  0  0  0
  3 16  1  0  0  0  0
  5 16  1  0  0  0  0
 16 21  1  0  0  0  0
 17 18  1  0  0  0  0
 17 19  1  0  0  0  0
 17 32  1  0  0  0  0
 17 33  1  0  0  0  0
 18 19  1  0  0  0  0
 18 34  1  0  0  0  0
 18 35  1  0  0  0  0
  7 19  1  0  0  0  0
 19 22  1  0  0  0  0
 20 36  1  0  0  0  0
 20 37  1  0  0  0  0
 20 38  1  0  0  0  0
 21 39  1  0  0  0  0
 21 40  1  0  0  0  0
 22 24  1  0  0  0  0
 22 25  1  0  0  0  0
 22 41  1  0  0  0  0
M  END
>  <pdb_header>
REMARK   1 CREATED WITH MDTraj 1.9.4, 2020-08-14
CRYST1   96.829   96.829   96.829  90.00  90.00  90.00 P 1           1 


$$$$
EN300-75221-neutral-primary_aminebackwards
  PyMOL2.3          3D                             0

 43 44  0  0  0  0  0  0  0  0999 V2000
   50.4938   59.9022   64.6478 C   0  0  0  0  0  0  0  0  0  0  0  0
   50.0986   60.6666   63.8763 N   0  0  0  0  0  0  0  0  0  0  0  0
   46.0039   53.8444   63.7570 O   0  0  0  0  0  0  0  0  0  0  0  0
   41.2978   53.4862   62.1162 C   0  0  0  0  0  0  0  0  0  0  0  0
   43.1868   52.1271   61.3492 N   0  0  0  0  0  0  0  0  0  0  0  0
   48.2786   55.3832   66.1399 C   0  0  0  0  0  0  0  0  0  0  0  0
   43.9474   53.8098   64.7081 N   0  0  0  0  0  0  0  0  0  0  0  0
   48.0437   53.0106   66.0699 C   0  0  0  0  0  0  0  0  0  0  0  0
   50.4686   56.4549   65.9313 N   0  0  0  0  0  0  0  0  0  0  0  0
   50.2329   54.0516   66.0715 C   0  0  0  0  0  0  0  0  0  0  0  0
   41.9618   52.6026   61.2132 C   0  0  0  0  0  0  0  0  0  0  0  0
   43.7982   52.6337   62.4818 C   0  0  0  0  0  0  0  0  0  0  0  0
   41.9329   53.9005   63.2820 C   0  0  0  0  0  0  0  0  0  0  0  0
   47.4298   54.2637   66.1311 C   0  0  0  0  0  0  0  0  0  0  0  0
   49.6684   55.3122   66.0940 C   0  0  0  0  0  0  0  0  0  0  0  0
   43.2497   53.3854   63.5225 C   0  0  0  0  0  0  0  0  0  0  0  0
   49.4531   52.9470   65.9885 C   0  0  0  0  0  0  0  0  0  0  0  0
   45.3140   53.9669   64.7593 C   0  0  0  0  0  0  0  0  0  0  0  0
   41.2306   55.0491   64.1095 C   0  0  0  0  0  0  0  0  0  0  0  0
   50.8542   56.9523   63.7237 C   0  0  0  0  0  0  0  0  0  0  0  0
   50.7742   58.7889   65.5362 C   0  0  0  0  0  0  0  0  0  0  0  0
   45.9493   54.4464   66.0827 C   0  0  0  0  0  0  0  0  0  0  0  0
   50.1255   57.4670   64.9898 C   0  0  0  0  0  0  0  0  0  0  0  0
   50.2962   51.5071   65.5330 Cl  0  0  0  0  0  0  0  0  0  0  0  0
   40.3623   53.9760   61.8674 H   0  0  0  0  0  0  0  0  0  0  0  0
   47.7522   56.3358   66.0794 H   0  0  0  0  0  0  0  0  0  0  0  0
   47.4885   52.0787   66.0179 H   0  0  0  0  0  0  0  0  0  0  0  0
   51.2779   53.8765   65.8438 H   0  0  0  0  0  0  0  0  0  0  0  0
   41.3667   52.4026   60.3259 H   0  0  0  0  0  0  0  0  0  0  0  0
   44.7368   52.1334   62.6963 H   0  0  0  0  0  0  0  0  0  0  0  0
   41.7443   56.0074   64.0567 H   0  0  0  0  0  0  0  0  0  0  0  0
   40.2300   55.2265   63.6914 H   0  0  0  0  0  0  0  0  0  0  0  0
   41.1901   54.7565   65.1644 H   0  0  0  0  0  0  0  0  0  0  0  0
   50.8433   55.8672   63.5885 H   0  0  0  0  0  0  0  0  0  0  0  0
   50.2327   57.3328   62.9041 H   0  0  0  0  0  0  0  0  0  0  0  0
   51.9039   57.2477   63.6030 H   0  0  0  0  0  0  0  0  0  0  0  0
   50.3352   59.0499   66.5035 H   0  0  0  0  0  0  0  0  0  0  0  0
   51.8634   58.7076   65.5951 H   0  0  0  0  0  0  0  0  0  0  0  0
   45.5579   53.9797   66.9913 H   0  0  0  0  0  0  0  0  0  0  0  0
   45.7545   55.4953   66.3302 H   0  0  0  0  0  0  0  0  0  0  0  0
   49.0635   57.6549   64.8104 H   0  0  0  0  0  0  0  0  0  0  0  0
   43.4570   54.1973   65.5101 H   0  0  0  0  0  0  0  0  0  0  0  0
   51.4388   56.3016   66.1910 H   0  0  0  0  0  0  0  0  0  0  0  0
  1  2  1  0  0  0  0
  1 21  1  0  0  0  0
  4 11  1  0  0  0  0
  4 13  1  0  0  0  0
  4 25  1  0  0  0  0
  6 14  1  0  0  0  0
  6 15  1  0  0  0  0
  6 26  1  0  0  0  0
  7 42  1  0  0  0  0
  8 14  1  0  0  0  0
  8 17  1  0  0  0  0
  8 27  1  0  0  0  0
  9 43  1  0  0  0  0
 10 15  1  0  0  0  0
 10 17  1  0  0  0  0
 10 28  1  0  0  0  0
  5 11  1  0  0  0  0
 11 29  1  0  0  0  0
  5 12  1  0  0  0  0
 12 16  1  0  0  0  0
 12 30  1  0  0  0  0
 13 16  1  0  0  0  0
 13 19  1  0  0  0  0
 14 22  1  0  0  0  0
  9 15  1  0  0  0  0
  7 16  1  0  0  0  0
 17 24  1  0  0  0  0
  3 18  1  0  0  0  0
  7 18  1  0  0  0  0
 18 22  1  0  0  0  0
 19 31  1  0  0  0  0
 19 32  1  0  0  0  0
 19 33  1  0  0  0  0
 20 23  1  0  0  0  0
 20 34  1  0  0  0  0
 20 35  1  0  0  0  0
 20 36  1  0  0  0  0
 21 23  1  0  0  0  0
 21 37  1  0  0  0  0
 21 38  1  0  0  0  0
 22 39  1  0  0  0  0
 22 40  1  0  0  0  0
  9 23  1  0  0  0  0
 23 41  1  0  0  0  0
M  END
>  <pdb_header>
REMARK   1 CREATED WITH MDTraj 1.9.4, 2020-08-14
CRYST1   96.962   96.962   96.962  90.00  90.00  90.00 P 1           1 


$$$$
EN300-7434894-neutral-primary_aminebackwards
  PyMOL2.3          3D                             0

 51 54  0  0  0  0  0  0  0  0999 V2000
   40.8427   54.2573   60.3438 C   0  0  0  0  0  0  0  0  0  0  0  0
   42.5409   52.7286   59.8290 N   0  0  0  0  0  0  0  0  0  0  0  0
   44.9819   53.3341   63.1633 O   0  0  0  0  0  0  0  0  0  0  0  0
   46.5562   55.4063   66.0653 C   0  0  0  0  0  0  0  0  0  0  0  0
   42.8213   53.9641   63.3439 N   0  0  0  0  0  0  0  0  0  0  0  0
   52.5148   57.4541   67.8550 O   0  0  0  0  0  0  0  0  0  0  0  0
   46.6210   53.0504   65.4934 C   0  0  0  0  0  0  0  0  0  0  0  0
   48.5572   56.5544   66.9520 N   0  0  0  0  0  0  0  0  0  0  0  0
   48.5921   54.1277   66.3282 C   0  0  0  0  0  0  0  0  0  0  0  0
   41.5774   53.5336   59.4356 C   0  0  0  0  0  0  0  0  0  0  0  0
   43.0318   52.8739   61.1000 C   0  0  0  0  0  0  0  0  0  0  0  0
   41.1802   54.3641   61.7039 C   0  0  0  0  0  0  0  0  0  0  0  0
   45.8847   54.2847   65.6722 C   0  0  0  0  0  0  0  0  0  0  0  0
   47.9211   55.3378   66.4619 C   0  0  0  0  0  0  0  0  0  0  0  0
   42.3754   53.6868   62.0649 C   0  0  0  0  0  0  0  0  0  0  0  0
   47.9726   52.9659   65.8770 C   0  0  0  0  0  0  0  0  0  0  0  0
   44.1663   53.8602   63.8502 C   0  0  0  0  0  0  0  0  0  0  0  0
   50.8661   56.8118   66.0430 C   0  0  0  0  0  0  0  0  0  0  0  0
   50.6273   55.8916   68.2957 C   0  0  0  0  0  0  0  0  0  0  0  0
   50.2348   57.9762   68.1977 C   0  0  0  0  0  0  0  0  0  0  0  0
   52.2913   57.2457   66.4866 C   0  0  0  0  0  0  0  0  0  0  0  0
   49.9530   56.7934   67.2719 C   0  0  0  0  0  0  0  0  0  0  0  0
   51.4045   57.1356   68.7383 C   0  0  0  0  0  0  0  0  0  0  0  0
   40.4181   55.2494   62.6428 C   0  0  0  0  0  0  0  0  0  0  0  0
   51.6535   57.3729   70.1990 C   0  0  0  0  0  0  0  0  0  0  0  0
   44.4030   54.2935   65.3072 C   0  0  0  0  0  0  0  0  0  0  0  0
   48.9741   51.5757   65.4549 Cl  0  0  0  0  0  0  0  0  0  0  0  0
   39.9065   54.7077   60.0170 H   0  0  0  0  0  0  0  0  0  0  0  0
   45.9980   56.3295   66.1645 H   0  0  0  0  0  0  0  0  0  0  0  0
   46.2776   52.1201   65.0604 H   0  0  0  0  0  0  0  0  0  0  0  0
   49.6052   53.9142   66.6788 H   0  0  0  0  0  0  0  0  0  0  0  0
   41.3005   53.6157   58.3896 H   0  0  0  0  0  0  0  0  0  0  0  0
   43.8766   52.2793   61.4430 H   0  0  0  0  0  0  0  0  0  0  0  0
   50.4262   57.4804   65.3092 H   0  0  0  0  0  0  0  0  0  0  0  0
   50.9649   55.7657   65.7278 H   0  0  0  0  0  0  0  0  0  0  0  0
   49.9263   55.4853   69.0348 H   0  0  0  0  0  0  0  0  0  0  0  0
   51.2295   55.0652   67.9178 H   0  0  0  0  0  0  0  0  0  0  0  0
   50.5923   58.8811   67.6943 H   0  0  0  0  0  0  0  0  0  0  0  0
   49.5074   58.1383   69.0003 H   0  0  0  0  0  0  0  0  0  0  0  0
   53.0269   56.5340   66.1161 H   0  0  0  0  0  0  0  0  0  0  0  0
   52.4523   58.2060   65.9788 H   0  0  0  0  0  0  0  0  0  0  0  0
   39.4755   55.5509   62.1586 H   0  0  0  0  0  0  0  0  0  0  0  0
   40.2864   54.7392   63.5932 H   0  0  0  0  0  0  0  0  0  0  0  0
   41.0398   56.1355   62.8135 H   0  0  0  0  0  0  0  0  0  0  0  0
   51.7653   58.4357   70.4313 H   0  0  0  0  0  0  0  0  0  0  0  0
   52.5905   56.8972   70.5097 H   0  0  0  0  0  0  0  0  0  0  0  0
   50.8110   57.0599   70.8158 H   0  0  0  0  0  0  0  0  0  0  0  0
   43.7626   53.6654   65.9321 H   0  0  0  0  0  0  0  0  0  0  0  0
   43.9363   55.2776   65.3533 H   0  0  0  0  0  0  0  0  0  0  0  0
   42.1479   54.3274   64.0143 H   0  0  0  0  0  0  0  0  0  0  0  0
   47.9387   57.3168   66.6869 H   0  0  0  0  0  0  0  0  0  0  0  0
  1 10  1  0  0  0  0
  1 12  1  0  0  0  0
  1 28  1  0  0  0  0
  4 13  1  0  0  0  0
  4 14  1  0  0  0  0
  4 29  1  0  0  0  0
  5 50  1  0  0  0  0
  7 13  1  0  0  0  0
  7 16  1  0  0  0  0
  7 30  1  0  0  0  0
  8 51  1  0  0  0  0
  9 14  1  0  0  0  0
  9 16  1  0  0  0  0
  9 31  1  0  0  0  0
  2 10  1  0  0  0  0
 10 32  1  0  0  0  0
  2 11  1  0  0  0  0
 11 15  1  0  0  0  0
 11 33  1  0  0  0  0
 12 15  1  0  0  0  0
 12 24  1  0  0  0  0
 13 26  1  0  0  0  0
  8 14  1  0  0  0  0
  5 15  1  0  0  0  0
 16 27  1  0  0  0  0
  3 17  1  0  0  0  0
  5 17  1  0  0  0  0
 17 26  1  0  0  0  0
 18 21  1  0  0  0  0
 18 22  1  0  0  0  0
 18 34  1  0  0  0  0
 18 35  1  0  0  0  0
 19 22  1  0  0  0  0
 19 23  1  0  0  0  0
 19 36  1  0  0  0  0
 19 37  1  0  0  0  0
 20 22  1  0  0  0  0
 20 23  1  0  0  0  0
 20 38  1  0  0  0  0
 20 39  1  0  0  0  0
  6 21  1  0  0  0  0
 21 40  1  0  0  0  0
 21 41  1  0  0  0  0
  8 22  1  0  0  0  0
  6 23  1  0  0  0  0
 23 25  1  0  0  0  0
 24 42  1  0  0  0  0
 24 43  1  0  0  0  0
 24 44  1  0  0  0  0
 25 45  1  0  0  0  0
 25 46  1  0  0  0  0
 25 47  1  0  0  0  0
 26 48  1  0  0  0  0
 26 49  1  0  0  0  0
M  END
>  <pdb_header>
REMARK   1 CREATED WITH MDTraj 1.9.4, 2020-08-14
CRYST1   96.801   96.801   96.801  90.00  90.00  90.00 P 1           1 


$$$$
EN300-344955-neutral-primary_aminebackwards
  PyMOL2.3          3D                             0

 41 43  0  0  0  0  0  0  0  0999 V2000
   40.8511   53.4703   62.0862 C   0  0  0  0  0  0  0  0  0  0  0  0
   42.6595   52.7217   60.8347 N   0  0  0  0  0  0  0  0  0  0  0  0
   45.6780   53.7955   63.5102 O   0  0  0  0  0  0  0  0  0  0  0  0
   47.7263   54.0729   65.8871 C   0  0  0  0  0  0  0  0  0  0  0  0
   47.9248   57.1352   65.5928 N   0  0  0  0  0  0  0  0  0  0  0  0
   48.2352   51.7948   65.3733 C   0  0  0  0  0  0  0  0  0  0  0  0
   50.1450   57.4740   65.0532 N   0  0  0  0  0  0  0  0  0  0  0  0
   50.0961   53.4026   65.6518 C   0  0  0  0  0  0  0  0  0  0  0  0
   49.6475   55.6693   66.1595 N   0  0  0  0  0  0  0  0  0  0  0  0
   41.3796   53.0578   60.8891 C   0  0  0  0  0  0  0  0  0  0  0  0
   43.7550   52.9801   64.3469 N   0  0  0  0  0  0  0  0  0  0  0  0
   43.4363   52.6960   61.9916 C   0  0  0  0  0  0  0  0  0  0  0  0
   47.6100   58.3343   65.0578 C   0  0  0  0  0  0  0  0  0  0  0  0
   49.8709   58.6739   64.4596 C   0  0  0  0  0  0  0  0  0  0  0  0
   41.5768   53.5301   63.3165 C   0  0  0  0  0  0  0  0  0  0  0  0
   47.2761   52.7921   65.6445 C   0  0  0  0  0  0  0  0  0  0  0  0
   49.1160   54.3927   65.9578 C   0  0  0  0  0  0  0  0  0  0  0  0
   42.9543   53.0796   63.2426 C   0  0  0  0  0  0  0  0  0  0  0  0
   48.5947   59.1489   64.5221 C   0  0  0  0  0  0  0  0  0  0  0  0
   49.6198   52.0702   65.4432 C   0  0  0  0  0  0  0  0  0  0  0  0
   49.2112   56.7851   65.5307 C   0  0  0  0  0  0  0  0  0  0  0  0
   45.1002   53.1660   64.3916 C   0  0  0  0  0  0  0  0  0  0  0  0
   40.9442   53.9632   64.5440 C   0  0  0  0  0  0  0  0  0  0  0  0
   45.8016   52.5536   65.5998 C   0  0  0  0  0  0  0  0  0  0  0  0
   50.7822   50.8122   65.0941 Cl  0  0  0  0  0  0  0  0  0  0  0  0
   48.4009   60.3602   64.0285 F   0  0  0  0  0  0  0  0  0  0  0  0
   39.8156   53.7869   62.1494 H   0  0  0  0  0  0  0  0  0  0  0  0
   47.0005   54.8560   66.0593 H   0  0  0  0  0  0  0  0  0  0  0  0
   47.9618   50.7637   65.1343 H   0  0  0  0  0  0  0  0  0  0  0  0
   51.1710   53.5251   65.7010 H   0  0  0  0  0  0  0  0  0  0  0  0
   40.8428   53.1149   59.9446 H   0  0  0  0  0  0  0  0  0  0  0  0
   44.4273   52.2874   61.8247 H   0  0  0  0  0  0  0  0  0  0  0  0
   46.5871   58.7017   64.9722 H   0  0  0  0  0  0  0  0  0  0  0  0
   50.6892   59.2799   64.0763 H   0  0  0  0  0  0  0  0  0  0  0  0
   41.6488   54.4957   65.1828 H   0  0  0  0  0  0  0  0  0  0  0  0
   40.2223   54.7144   64.2280 H   0  0  0  0  0  0  0  0  0  0  0  0
   40.3800   53.1636   65.0440 H   0  0  0  0  0  0  0  0  0  0  0  0
   45.5488   51.4963   65.6760 H   0  0  0  0  0  0  0  0  0  0  0  0
   45.4647   53.0485   66.5067 H   0  0  0  0  0  0  0  0  0  0  0  0
   50.6596   55.7449   66.2155 H   0  0  0  0  0  0  0  0  0  0  0  0
   43.3526   52.6948   65.2391 H   0  0  0  0  0  0  0  0  0  0  0  0
  1 10  1  0  0  0  0
  1 15  1  0  0  0  0
  1 27  1  0  0  0  0
  4 16  1  0  0  0  0
  4 17  1  0  0  0  0
  4 28  1  0  0  0  0
  6 16  1  0  0  0  0
  6 20  1  0  0  0  0
  6 29  1  0  0  0  0
  8 17  1  0  0  0  0
  8 20  1  0  0  0  0
  8 30  1  0  0  0  0
  9 40  1  0  0  0  0
  2 10  1  0  0  0  0
 10 31  1  0  0  0  0
 11 41  1  0  0  0  0
  2 12  1  0  0  0  0
 12 18  1  0  0  0  0
 12 32  1  0  0  0  0
  5 13  1  0  0  0  0
 13 19  1  0  0  0  0
 13 33  1  0  0  0  0
  7 14  1  0  0  0  0
 14 19  1  0  0  0  0
 14 34  1  0  0  0  0
 15 18  1  0  0  0  0
 15 23  1  0  0  0  0
 16 24  1  0  0  0  0
  9 17  1  0  0  0  0
 11 18  1  0  0  0  0
 19 26  1  0  0  0  0
 20 25  1  0  0  0  0
  5 21  1  0  0  0  0
  7 21  1  0  0  0  0
  9 21  1  0  0  0  0
  3 22  1  0  0  0  0
 11 22  1  0  0  0  0
 22 24  1  0  0  0  0
 23 35  1  0  0  0  0
 23 36  1  0  0  0  0
 23 37  1  0  0  0  0
 24 38  1  0  0  0  0
 24 39  1  0  0  0  0
M  END
>  <pdb_header>
REMARK   1 CREATED WITH MDTraj 1.9.4, 2020-08-14
CRYST1   96.995   96.995   96.995  90.00  90.00  90.00 P 1           1 


$$$$
EN300-1272614-neutral-primary_aminebackwards
  PyMOL2.3          3D                             0

 45 47  0  0  0  0  0  0  0  0999 V2000
   49.3735   59.3963   65.2977 C   0  0  0  0  0  0  0  0  0  0  0  0
   43.2123   52.8165   61.3598 N   0  0  0  0  0  0  0  0  0  0  0  0
   46.2754   52.8110   64.2404 O   0  0  0  0  0  0  0  0  0  0  0  0
   49.8176   58.4161   64.7967 C   0  0  0  0  0  0  0  0  0  0  0  0
   44.4997   54.1692   64.6401 N   0  0  0  0  0  0  0  0  0  0  0  0
   41.5240   54.1119   62.4516 C   0  0  0  0  0  0  0  0  0  0  0  0
   50.7519   56.1893   64.9257 N   0  0  0  0  0  0  0  0  0  0  0  0
   48.6274   55.0470   65.6052 C   0  0  0  0  0  0  0  0  0  0  0  0
   48.7323   52.9269   66.6740 C   0  0  0  0  0  0  0  0  0  0  0  0
   50.7595   54.1190   66.1634 C   0  0  0  0  0  0  0  0  0  0  0  0
   41.9416   53.3389   61.4002 C   0  0  0  0  0  0  0  0  0  0  0  0
   44.0408   53.0924   62.4172 C   0  0  0  0  0  0  0  0  0  0  0  0
   42.3476   54.3733   63.4926 C   0  0  0  0  0  0  0  0  0  0  0  0
   48.0049   53.9472   66.1571 C   0  0  0  0  0  0  0  0  0  0  0  0
   50.0168   55.1148   65.5503 C   0  0  0  0  0  0  0  0  0  0  0  0
   43.6293   53.8638   63.5418 C   0  0  0  0  0  0  0  0  0  0  0  0
   50.1333   52.9886   66.7559 C   0  0  0  0  0  0  0  0  0  0  0  0
   45.7483   53.5936   65.0033 C   0  0  0  0  0  0  0  0  0  0  0  0
   47.4489   60.5770   66.7097 C   0  0  0  0  0  0  0  0  0  0  0  0
   47.6173   61.1225   65.2845 C   0  0  0  0  0  0  0  0  0  0  0  0
   48.8085   60.5824   65.9647 C   0  0  0  0  0  0  0  0  0  0  0  0
   41.6971   55.1084   64.5803 C   0  0  0  0  0  0  0  0  0  0  0  0
   50.1566   57.2207   64.0526 C   0  0  0  0  0  0  0  0  0  0  0  0
   46.4651   53.9466   66.2957 C   0  0  0  0  0  0  0  0  0  0  0  0
   51.0281   51.8307   67.7311 Cl  0  0  0  0  0  0  0  0  0  0  0  0
   40.5198   54.5071   62.4083 H   0  0  0  0  0  0  0  0  0  0  0  0
   48.0092   55.8837   65.2925 H   0  0  0  0  0  0  0  0  0  0  0  0
   48.2771   52.0430   67.1307 H   0  0  0  0  0  0  0  0  0  0  0  0
   51.8381   54.0964   66.1964 H   0  0  0  0  0  0  0  0  0  0  0  0
   41.3315   53.1225   60.5309 H   0  0  0  0  0  0  0  0  0  0  0  0
   45.0429   52.7131   62.2261 H   0  0  0  0  0  0  0  0  0  0  0  0
   47.4753   61.2966   67.5401 H   0  0  0  0  0  0  0  0  0  0  0  0
   46.9307   59.6245   66.8355 H   0  0  0  0  0  0  0  0  0  0  0  0
   47.4390   62.2012   65.2070 H   0  0  0  0  0  0  0  0  0  0  0  0
   47.1941   60.5195   64.4759 H   0  0  0  0  0  0  0  0  0  0  0  0
   49.5562   61.3491   66.1928 H   0  0  0  0  0  0  0  0  0  0  0  0
   41.7370   54.5583   65.5237 H   0  0  0  0  0  0  0  0  0  0  0  0
   42.1017   56.1159   64.7588 H   0  0  0  0  0  0  0  0  0  0  0  0
   40.6477   55.3077   64.3261 H   0  0  0  0  0  0  0  0  0  0  0  0
   50.8743   57.4194   63.2490 H   0  0  0  0  0  0  0  0  0  0  0  0
   49.3251   56.7918   63.5002 H   0  0  0  0  0  0  0  0  0  0  0  0
   46.2406   53.1327   66.9888 H   0  0  0  0  0  0  0  0  0  0  0  0
   46.2181   54.8601   66.8457 H   0  0  0  0  0  0  0  0  0  0  0  0
   44.1847   54.7792   65.3885 H   0  0  0  0  0  0  0  0  0  0  0  0
   51.7412   56.2887   65.1163 H   0  0  0  0  0  0  0  0  0  0  0  0
  1  4  1  0  0  0  0
  1 21  1  0  0  0  0
  4 23  1  0  0  0  0
  5 44  1  0  0  0  0
  6 11  1  0  0  0  0
  6 13  1  0  0  0  0
  6 26  1  0  0  0  0
  7 45  1  0  0  0  0
  8 14  1  0  0  0  0
  8 15  1  0  0  0  0
  8 27  1  0  0  0  0
  9 14  1  0  0  0  0
  9 17  1  0  0  0  0
  9 28  1  0  0  0  0
 10 15  1  0  0  0  0
 10 17  1  0  0  0  0
 10 29  1  0  0  0  0
  2 11  1  0  0  0  0
 11 30  1  0  0  0  0
  2 12  1  0  0  0  0
 12 16  1  0  0  0  0
 12 31  1  0  0  0  0
 13 16  1  0  0  0  0
 13 22  1  0  0  0  0
 14 24  1  0  0  0  0
  7 15  1  0  0  0  0
  5 16  1  0  0  0  0
 17 25  1  0  0  0  0
  3 18  1  0  0  0  0
  5 18  1  0  0  0  0
 18 24  1  0  0  0  0
 19 20  1  0  0  0  0
 19 21  1  0  0  0  0
 19 32  1  0  0  0  0
 19 33  1  0  0  0  0
 20 21  1  0  0  0  0
 20 34  1  0  0  0  0
 20 35  1  0  0  0  0
 21 36  1  0  0  0  0
 22 37  1  0  0  0  0
 22 38  1  0  0  0  0
 22 39  1  0  0  0  0
  7 23  1  0  0  0  0
 23 40  1  0  0  0  0
 23 41  1  0  0  0  0
 24 42  1  0  0  0  0
 24 43  1  0  0  0  0
M  END
>  <pdb_header>
REMARK   1 CREATED WITH MDTraj 1.9.4, 2020-08-14
CRYST1   96.913   96.913   96.913  90.00  90.00  90.00 P 1           1 


$$$$
EN300-1604839-neutral-primary_aminebackwards
  PyMOL2.3          3D                             0

 42 44  0  0  0  0  0  0  0  0999 V2000
   41.3009   52.6212   62.5433 C   0  0  0  0  0  0  0  0  0  0  0  0
   43.1494   51.6021   61.3252 N   0  0  0  0  0  0  0  0  0  0  0  0
   50.3054   58.3629   66.8807 O   0  0  0  0  0  0  0  0  0  0  0  0
   47.7220   54.3306   65.4385 C   0  0  0  0  0  0  0  0  0  0  0  0
   44.0693   52.0806   64.9228 N   0  0  0  0  0  0  0  0  0  0  0  0
   46.0614   52.3574   63.9160 O   0  0  0  0  0  0  0  0  0  0  0  0
   48.3583   52.6442   67.0306 C   0  0  0  0  0  0  0  0  0  0  0  0
   49.2477   56.0400   64.9046 N   0  0  0  0  0  0  0  0  0  0  0  0
   49.9922   54.3372   66.5217 C   0  0  0  0  0  0  0  0  0  0  0  0
   41.9018   52.1538   61.3545 C   0  0  0  0  0  0  0  0  0  0  0  0
   43.7445   51.5258   62.5326 C   0  0  0  0  0  0  0  0  0  0  0  0
   41.8957   52.5000   63.7265 C   0  0  0  0  0  0  0  0  0  0  0  0
   47.4255   53.2393   66.2206 C   0  0  0  0  0  0  0  0  0  0  0  0
   49.0059   54.8721   65.5596 C   0  0  0  0  0  0  0  0  0  0  0  0
   43.2630   52.0956   63.7284 C   0  0  0  0  0  0  0  0  0  0  0  0
   49.6419   53.2486   67.2663 C   0  0  0  0  0  0  0  0  0  0  0  0
   50.3649   58.1692   65.6909 C   0  0  0  0  0  0  0  0  0  0  0  0
   45.4302   52.3781   64.9582 C   0  0  0  0  0  0  0  0  0  0  0  0
   50.9187   59.1482   64.7340 C   0  0  0  0  0  0  0  0  0  0  0  0
   50.7946   57.8660   63.8409 C   0  0  0  0  0  0  0  0  0  0  0  0
   50.4820   56.8164   64.9751 C   0  0  0  0  0  0  0  0  0  0  0  0
   41.1933   52.9335   64.9999 C   0  0  0  0  0  0  0  0  0  0  0  0
   46.0339   52.7454   66.2684 C   0  0  0  0  0  0  0  0  0  0  0  0
   50.5591   52.6328   68.5648 Cl  0  0  0  0  0  0  0  0  0  0  0  0
   40.2877   52.9790   62.3553 H   0  0  0  0  0  0  0  0  0  0  0  0
   46.9914   54.7070   64.7256 H   0  0  0  0  0  0  0  0  0  0  0  0
   48.1817   51.7447   67.6170 H   0  0  0  0  0  0  0  0  0  0  0  0
   50.8725   54.9658   66.6226 H   0  0  0  0  0  0  0  0  0  0  0  0
   41.3805   52.1420   60.4086 H   0  0  0  0  0  0  0  0  0  0  0  0
   44.7042   51.0493   62.7141 H   0  0  0  0  0  0  0  0  0  0  0  0
   50.3837   60.0641   64.4766 H   0  0  0  0  0  0  0  0  0  0  0  0
   51.9475   59.3739   65.0303 H   0  0  0  0  0  0  0  0  0  0  0  0
   51.6419   57.6227   63.2042 H   0  0  0  0  0  0  0  0  0  0  0  0
   49.9875   58.0491   63.1196 H   0  0  0  0  0  0  0  0  0  0  0  0
   51.3836   56.3120   65.3288 H   0  0  0  0  0  0  0  0  0  0  0  0
   41.4617   52.1799   65.7484 H   0  0  0  0  0  0  0  0  0  0  0  0
   41.6802   53.8561   65.3081 H   0  0  0  0  0  0  0  0  0  0  0  0
   40.1197   53.0988   64.9460 H   0  0  0  0  0  0  0  0  0  0  0  0
   46.0122   51.8533   66.9053 H   0  0  0  0  0  0  0  0  0  0  0  0
   45.3885   53.4838   66.7580 H   0  0  0  0  0  0  0  0  0  0  0  0
   43.5784   52.3767   65.7672 H   0  0  0  0  0  0  0  0  0  0  0  0
   48.5238   56.3591   64.2606 H   0  0  0  0  0  0  0  0  0  0  0  0
  1 10  1  0  0  0  0
  1 12  1  0  0  0  0
  1 25  1  0  0  0  0
  4 13  1  0  0  0  0
  4 14  1  0  0  0  0
  4 26  1  0  0  0  0
  5 41  1  0  0  0  0
  7 13  1  0  0  0  0
  7 16  1  0  0  0  0
  7 27  1  0  0  0  0
  8 42  1  0  0  0  0
  9 14  1  0  0  0  0
  9 16  1  0  0  0  0
  9 28  1  0  0  0  0
  2 10  1  0  0  0  0
 10 29  1  0  0  0  0
  2 11  1  0  0  0  0
 11 15  1  0  0  0  0
 11 30  1  0  0  0  0
 12 15  1  0  0  0  0
 12 22  1  0  0  0  0
 13 23  1  0  0  0  0
  8 14  1  0  0  0  0
  5 15  1  0  0  0  0
 16 24  1  0  0  0  0
  3 17  1  0  0  0  0
 17 19  1  0  0  0  0
 17 21  1  0  0  0  0
  5 18  1  0  0  0  0
  6 18  1  0  0  0  0
 18 23  1  0  0  0  0
 19 20  1  0  0  0  0
 19 31  1  0  0  0  0
 19 32  1  0  0  0  0
 20 21  1  0  0  0  0
 20 33  1  0  0  0  0
 20 34  1  0  0  0  0
  8 21  1  0  0  0  0
 21 35  1  0  0  0  0
 22 36  1  0  0  0  0
 22 37  1  0  0  0  0
 22 38  1  0  0  0  0
 23 39  1  0  0  0  0
 23 40  1  0  0  0  0
M  END
>  <pdb_header>
REMARK   1 CREATED WITH MDTraj 1.9.4, 2020-08-14
CRYST1   96.866   96.866   96.866  90.00  90.00  90.00 P 1           1 


$$$$
EN300-6478226-neutral-primary_aminebackwards
  PyMOL2.3          3D                             0

 43 46  0  0  0  0  0  0  0  0999 V2000
   41.1135   53.6737   61.5745 C   0  0  0  0  0  0  0  0  0  0  0  0
   42.9711   52.3177   60.9435 N   0  0  0  0  0  0  0  0  0  0  0  0
   45.5738   53.8091   63.7696 O   0  0  0  0  0  0  0  0  0  0  0  0
   46.8014   56.3377   66.0859 C   0  0  0  0  0  0  0  0  0  0  0  0
   45.8890   61.9911   65.4386 N   0  0  0  0  0  0  0  0  0  0  0  0
   47.9172   54.1890   66.0613 C   0  0  0  0  0  0  0  0  0  0  0  0
   46.6233   62.7884   64.9782 N   0  0  0  0  0  0  0  0  0  0  0  0
   49.1761   56.1871   65.5922 C   0  0  0  0  0  0  0  0  0  0  0  0
   43.4381   53.7006   64.4139 N   0  0  0  0  0  0  0  0  0  0  0  0
   41.8260   52.9274   60.6397 C   0  0  0  0  0  0  0  0  0  0  0  0
   48.1679   58.3865   65.8029 N   0  0  0  0  0  0  0  0  0  0  0  0
   43.4736   52.4510   62.2123 C   0  0  0  0  0  0  0  0  0  0  0  0
   41.6174   53.9029   62.8733 C   0  0  0  0  0  0  0  0  0  0  0  0
   46.7131   54.9314   66.1304 C   0  0  0  0  0  0  0  0  0  0  0  0
   48.0047   56.9628   65.8236 C   0  0  0  0  0  0  0  0  0  0  0  0
   42.8537   53.3397   63.1836 C   0  0  0  0  0  0  0  0  0  0  0  0
   49.1090   54.7756   65.7291 C   0  0  0  0  0  0  0  0  0  0  0  0
   44.7829   53.9528   64.6583 C   0  0  0  0  0  0  0  0  0  0  0  0
   47.4988   60.7343   66.5572 C   0  0  0  0  0  0  0  0  0  0  0  0
   46.8396   60.0313   64.6264 C   0  0  0  0  0  0  0  0  0  0  0  0
   47.0423   59.2721   65.9606 C   0  0  0  0  0  0  0  0  0  0  0  0
   47.1962   61.4299   65.2315 C   0  0  0  0  0  0  0  0  0  0  0  0
   40.9726   54.8912   63.8038 C   0  0  0  0  0  0  0  0  0  0  0  0
   45.3111   54.2971   66.0814 C   0  0  0  0  0  0  0  0  0  0  0  0
   50.5487   53.7914   65.5113 Cl  0  0  0  0  0  0  0  0  0  0  0  0
   40.1240   54.0500   61.3293 H   0  0  0  0  0  0  0  0  0  0  0  0
   45.9234   56.9730   66.1848 H   0  0  0  0  0  0  0  0  0  0  0  0
   47.9330   53.1067   65.9777 H   0  0  0  0  0  0  0  0  0  0  0  0
   50.1154   56.6565   65.2972 H   0  0  0  0  0  0  0  0  0  0  0  0
   41.5278   52.9176   59.5899 H   0  0  0  0  0  0  0  0  0  0  0  0
   44.4032   51.9434   62.4065 H   0  0  0  0  0  0  0  0  0  0  0  0
   46.8919   61.1081   67.3906 H   0  0  0  0  0  0  0  0  0  0  0  0
   48.5685   60.8363   66.7620 H   0  0  0  0  0  0  0  0  0  0  0  0
   47.5737   59.8217   63.8347 H   0  0  0  0  0  0  0  0  0  0  0  0
   45.8625   59.8626   64.1628 H   0  0  0  0  0  0  0  0  0  0  0  0
   46.1429   58.8480   66.4158 H   0  0  0  0  0  0  0  0  0  0  0  0
   40.1890   55.5171   63.3533 H   0  0  0  0  0  0  0  0  0  0  0  0
   40.5917   54.3157   64.6549 H   0  0  0  0  0  0  0  0  0  0  0  0
   41.7344   55.6076   64.1329 H   0  0  0  0  0  0  0  0  0  0  0  0
   45.4622   53.3249   66.5773 H   0  0  0  0  0  0  0  0  0  0  0  0
   44.5676   54.8088   66.7069 H   0  0  0  0  0  0  0  0  0  0  0  0
   42.8031   54.0152   65.1444 H   0  0  0  0  0  0  0  0  0  0  0  0
   49.0451   58.7858   65.4651 H   0  0  0  0  0  0  0  0  0  0  0  0
  1 10  1  0  0  0  0
  1 13  1  0  0  0  0
  1 26  1  0  0  0  0
  4 14  1  0  0  0  0
  4 15  1  0  0  0  0
  4 27  1  0  0  0  0
  5  7  1  0  0  0  0
  6 14  1  0  0  0  0
  6 17  1  0  0  0  0
  6 28  1  0  0  0  0
  8 15  1  0  0  0  0
  8 17  1  0  0  0  0
  8 29  1  0  0  0  0
  9 42  1  0  0  0  0
  2 10  1  0  0  0  0
 10 30  1  0  0  0  0
 11 43  1  0  0  0  0
  2 12  1  0  0  0  0
 12 16  1  0  0  0  0
 12 31  1  0  0  0  0
 13 16  1  0  0  0  0
 13 23  1  0  0  0  0
 14 24  1  0  0  0  0
 11 15  1  0  0  0  0
  9 16  1  0  0  0  0
 17 25  1  0  0  0  0
  3 18  1  0  0  0  0
  9 18  1  0  0  0  0
 18 24  1  0  0  0  0
 19 21  1  0  0  0  0
 19 22  1  0  0  0  0
 19 32  1  0  0  0  0
 19 33  1  0  0  0  0
 20 21  1  0  0  0  0
 20 22  1  0  0  0  0
 20 34  1  0  0  0  0
 20 35  1  0  0  0  0
 11 21  1  0  0  0  0
 21 36  1  0  0  0  0
  5 22  1  0  0  0  0
  7 22  1  0  0  0  0
 23 37  1  0  0  0  0
 23 38  1  0  0  0  0
 23 39  1  0  0  0  0
 24 40  1  0  0  0  0
 24 41  1  0  0  0  0
M  END
>  <pdb_header>
REMARK   1 CREATED WITH MDTraj 1.9.4, 2020-08-14
CRYST1   96.924   96.924   96.924  90.00  90.00  90.00 P 1           1 


$$$$
EN300-26974864-neutral-primary_aminebackwards
  PyMOL2.3          3D                             0

 54 57  0  0  0  0  0  0  0  0999 V2000
   42.7844   53.7698   62.8681 C   0  0  0  0  0  0  0  0  0  0  0  0
   43.7553   52.4361   61.1569 N   0  0  0  0  0  0  0  0  0  0  0  0
   47.3017   50.9790   63.1194 O   0  0  0  0  0  0  0  0  0  0  0  0
   48.4542   54.6589   64.9217 C   0  0  0  0  0  0  0  0  0  0  0  0
   46.2149   52.8172   63.9999 N   0  0  0  0  0  0  0  0  0  0  0  0
   46.9118   59.6952   65.9535 O   0  0  0  0  0  0  0  0  0  0  0  0
   50.3917   53.5241   63.9704 C   0  0  0  0  0  0  0  0  0  0  0  0
   48.1676   56.9912   64.8026 N   0  0  0  0  0  0  0  0  0  0  0  0
   50.3243   55.8821   64.0580 C   0  0  0  0  0  0  0  0  0  0  0  0
   42.7001   53.1470   61.6163 C   0  0  0  0  0  0  0  0  0  0  0  0
   44.8341   52.2260   62.0293 C   0  0  0  0  0  0  0  0  0  0  0  0
   43.9543   53.7340   63.6720 C   0  0  0  0  0  0  0  0  0  0  0  0
   49.1153   53.4641   64.6635 C   0  0  0  0  0  0  0  0  0  0  0  0
   49.0070   55.8444   64.6278 C   0  0  0  0  0  0  0  0  0  0  0  0
   44.9920   52.8828   63.2360 C   0  0  0  0  0  0  0  0  0  0  0  0
   51.0108   54.7158   63.7075 C   0  0  0  0  0  0  0  0  0  0  0  0
   47.3409   51.9301   63.9277 C   0  0  0  0  0  0  0  0  0  0  0  0
   47.1728   59.7751   63.5310 C   0  0  0  0  0  0  0  0  0  0  0  0
   46.4124   61.1560   63.4319 C   0  0  0  0  0  0  0  0  0  0  0  0
   44.1156   60.5976   64.5283 C   0  0  0  0  0  0  0  0  0  0  0  0
   44.3459   62.1037   64.6709 C   0  0  0  0  0  0  0  0  0  0  0  0
   46.2819   60.9614   66.0302 C   0  0  0  0  0  0  0  0  0  0  0  0
   47.8275   59.6454   64.8634 C   0  0  0  0  0  0  0  0  0  0  0  0
   45.5197   61.1745   64.6984 C   0  0  0  0  0  0  0  0  0  0  0  0
   44.1651   54.5690   64.9267 C   0  0  0  0  0  0  0  0  0  0  0  0
   48.4990   52.1192   64.8865 C   0  0  0  0  0  0  0  0  0  0  0  0
   48.6829   58.3344   64.7418 C   0  0  0  0  0  0  0  0  0  0  0  0
   52.5627   54.9008   62.9772 Cl  0  0  0  0  0  0  0  0  0  0  0  0
   41.9706   54.4295   63.1659 H   0  0  0  0  0  0  0  0  0  0  0  0
   47.4682   54.6952   65.3738 H   0  0  0  0  0  0  0  0  0  0  0  0
   50.8913   52.5901   63.7093 H   0  0  0  0  0  0  0  0  0  0  0  0
   50.7446   56.8593   63.8279 H   0  0  0  0  0  0  0  0  0  0  0  0
   41.8462   53.3230   60.9727 H   0  0  0  0  0  0  0  0  0  0  0  0
   45.6592   51.6426   61.6499 H   0  0  0  0  0  0  0  0  0  0  0  0
   46.4603   59.0001   63.2585 H   0  0  0  0  0  0  0  0  0  0  0  0
   47.9171   59.6430   62.7471 H   0  0  0  0  0  0  0  0  0  0  0  0
   47.1730   61.9421   63.4052 H   0  0  0  0  0  0  0  0  0  0  0  0
   45.7846   61.2674   62.5363 H   0  0  0  0  0  0  0  0  0  0  0  0
   43.6381   60.1737   65.4067 H   0  0  0  0  0  0  0  0  0  0  0  0
   43.7795   60.1979   63.5617 H   0  0  0  0  0  0  0  0  0  0  0  0
   44.0507   62.7369   63.8242 H   0  0  0  0  0  0  0  0  0  0  0  0
   44.1553   62.4588   65.6867 H   0  0  0  0  0  0  0  0  0  0  0  0
   46.9428   61.8157   66.2005 H   0  0  0  0  0  0  0  0  0  0  0  0
   45.4729   60.9411   66.7666 H   0  0  0  0  0  0  0  0  0  0  0  0
   48.5127   60.4882   64.9870 H   0  0  0  0  0  0  0  0  0  0  0  0
   44.8129   55.4521   64.8707 H   0  0  0  0  0  0  0  0  0  0  0  0
   43.2135   55.0429   65.1921 H   0  0  0  0  0  0  0  0  0  0  0  0
   44.5429   53.9654   65.7684 H   0  0  0  0  0  0  0  0  0  0  0  0
   49.2345   51.3205   64.7580 H   0  0  0  0  0  0  0  0  0  0  0  0
   48.1288   52.0748   65.9179 H   0  0  0  0  0  0  0  0  0  0  0  0
   49.4535   58.4699   63.9740 H   0  0  0  0  0  0  0  0  0  0  0  0
   49.1586   58.3779   65.7256 H   0  0  0  0  0  0  0  0  0  0  0  0
   46.3538   53.5594   64.6782 H   0  0  0  0  0  0  0  0  0  0  0  0
   47.2600   56.8766   65.2557 H   0  0  0  0  0  0  0  0  0  0  0  0
  1 10  1  0  0  0  0
  1 12  1  0  0  0  0
  1 29  1  0  0  0  0
  4 13  1  0  0  0  0
  4 14  1  0  0  0  0
  4 30  1  0  0  0  0
  5 53  1  0  0  0  0
  7 13  1  0  0  0  0
  7 16  1  0  0  0  0
  7 31  1  0  0  0  0
  8 54  1  0  0  0  0
  9 14  1  0  0  0  0
  9 16  1  0  0  0  0
  9 32  1  0  0  0  0
  2 10  1  0  0  0  0
 10 33  1  0  0  0  0
  2 11  1  0  0  0  0
 11 15  1  0  0  0  0
 11 34  1  0  0  0  0
 12 15  1  0  0  0  0
 12 25  1  0  0  0  0
 13 26  1  0  0  0  0
  8 14  1  0  0  0  0
  5 15  1  0  0  0  0
 16 28  1  0  0  0  0
  3 17  1  0  0  0  0
  5 17  1  0  0  0  0
 17 26  1  0  0  0  0
 18 19  1  0  0  0  0
 18 23  1  0  0  0  0
 18 35  1  0  0  0  0
 18 36  1  0  0  0  0
 19 24  1  0  0  0  0
 19 37  1  0  0  0  0
 19 38  1  0  0  0  0
 20 21  1  0  0  0  0
 20 24  1  0  0  0  0
 20 39  1  0  0  0  0
 20 40  1  0  0  0  0
 21 24  1  0  0  0  0
 21 41  1  0  0  0  0
 21 42  1  0  0  0  0
  6 22  1  0  0  0  0
 22 24  1  0  0  0  0
 22 43  1  0  0  0  0
 22 44  1  0  0  0  0
  6 23  1  0  0  0  0
 23 27  1  0  0  0  0
 23 45  1  0  0  0  0
 25 46  1  0  0  0  0
 25 47  1  0  0  0  0
 25 48  1  0  0  0  0
 26 49  1  0  0  0  0
 26 50  1  0  0  0  0
  8 27  1  0  0  0  0
 27 51  1  0  0  0  0
 27 52  1  0  0  0  0
M  END
>  <pdb_header>
REMARK   1 CREATED WITH MDTraj 1.9.4, 2020-08-14
CRYST1   96.949   96.949   96.949  90.00  90.00  90.00 P 1           1 


$$$$
EN300-212829-neutral-primary_aminebackwards
  PyMOL2.3          3D                             0

 46 47  0  0  0  0  0  0  0  0999 V2000
   51.3532   59.8817   65.2930 C   0  0  0  0  0  0  0  0  0  0  0  0
   52.3881   60.3347   65.6162 N   0  0  0  0  0  0  0  0  0  0  0  0
   46.4888   53.5753   63.7540 O   0  0  0  0  0  0  0  0  0  0  0  0
   41.4314   52.9895   62.7363 C   0  0  0  0  0  0  0  0  0  0  0  0
   43.3033   52.3005   61.4002 N   0  0  0  0  0  0  0  0  0  0  0  0
   48.4788   55.5712   65.9662 C   0  0  0  0  0  0  0  0  0  0  0  0
   44.4468   53.4739   64.7775 N   0  0  0  0  0  0  0  0  0  0  0  0
   48.8970   53.1183   65.9372 C   0  0  0  0  0  0  0  0  0  0  0  0
   50.3767   57.1747   65.8127 N   0  0  0  0  0  0  0  0  0  0  0  0
   50.6636   54.7572   65.6863 C   0  0  0  0  0  0  0  0  0  0  0  0
   41.9646   52.4780   61.5969 C   0  0  0  0  0  0  0  0  0  0  0  0
   44.1230   52.6258   62.4540 C   0  0  0  0  0  0  0  0  0  0  0  0
   42.2355   53.4497   63.7576 C   0  0  0  0  0  0  0  0  0  0  0  0
   48.0230   54.2043   66.0717 C   0  0  0  0  0  0  0  0  0  0  0  0
   49.8479   55.8392   65.8535 C   0  0  0  0  0  0  0  0  0  0  0  0
   43.6116   53.1575   63.6760 C   0  0  0  0  0  0  0  0  0  0  0  0
   50.1953   53.4363   65.7123 C   0  0  0  0  0  0  0  0  0  0  0  0
   45.8387   53.6122   64.7923 C   0  0  0  0  0  0  0  0  0  0  0  0
   41.6133   54.0826   64.9297 C   0  0  0  0  0  0  0  0  0  0  0  0
   50.2182   58.8409   63.3385 C   0  0  0  0  0  0  0  0  0  0  0  0
   49.0536   60.5939   64.7996 C   0  0  0  0  0  0  0  0  0  0  0  0
   46.5496   54.0475   66.0903 C   0  0  0  0  0  0  0  0  0  0  0  0
   49.5331   58.3570   65.7543 C   0  0  0  0  0  0  0  0  0  0  0  0
   50.0560   59.4354   64.7942 C   0  0  0  0  0  0  0  0  0  0  0  0
   51.2431   52.0494   65.6139 Cl  0  0  0  0  0  0  0  0  0  0  0  0
   40.3512   53.0072   62.8466 H   0  0  0  0  0  0  0  0  0  0  0  0
   47.7102   56.3365   66.0882 H   0  0  0  0  0  0  0  0  0  0  0  0
   48.5423   52.0924   65.9481 H   0  0  0  0  0  0  0  0  0  0  0  0
   51.7165   54.9797   65.5523 H   0  0  0  0  0  0  0  0  0  0  0  0
   41.2869   52.2831   60.7728 H   0  0  0  0  0  0  0  0  0  0  0  0
   45.1727   52.3478   62.3949 H   0  0  0  0  0  0  0  0  0  0  0  0
   41.6000   53.4515   65.8147 H   0  0  0  0  0  0  0  0  0  0  0  0
   42.0714   55.0354   65.2025 H   0  0  0  0  0  0  0  0  0  0  0  0
   40.5598   54.3735   64.7830 H   0  0  0  0  0  0  0  0  0  0  0  0
   50.9759   58.0524   63.2639 H   0  0  0  0  0  0  0  0  0  0  0  0
   50.6668   59.6066   62.6916 H   0  0  0  0  0  0  0  0  0  0  0  0
   49.2971   58.4762   62.8714 H   0  0  0  0  0  0  0  0  0  0  0  0
   48.0870   60.1606   64.5248 H   0  0  0  0  0  0  0  0  0  0  0  0
   49.2946   61.4891   64.2147 H   0  0  0  0  0  0  0  0  0  0  0  0
   49.0092   60.9619   65.8250 H   0  0  0  0  0  0  0  0  0  0  0  0
   46.3208   53.2322   66.7699 H   0  0  0  0  0  0  0  0  0  0  0  0
   46.0147   54.8971   66.5356 H   0  0  0  0  0  0  0  0  0  0  0  0
   48.5363   58.0863   65.4151 H   0  0  0  0  0  0  0  0  0  0  0  0
   49.4837   58.8190   66.7508 H   0  0  0  0  0  0  0  0  0  0  0  0
   44.0427   53.6062   65.6932 H   0  0  0  0  0  0  0  0  0  0  0  0
   51.3739   57.3124   65.6306 H   0  0  0  0  0  0  0  0  0  0  0  0
  1  2  1  0  0  0  0
  1 24  1  0  0  0  0
  4 11  1  0  0  0  0
  4 13  1  0  0  0  0
  4 26  1  0  0  0  0
  6 14  1  0  0  0  0
  6 15  1  0  0  0  0
  6 27  1  0  0  0  0
  7 45  1  0  0  0  0
  8 14  1  0  0  0  0
  8 17  1  0  0  0  0
  8 28  1  0  0  0  0
  9 46  1  0  0  0  0
 10 15  1  0  0  0  0
 10 17  1  0  0  0  0
 10 29  1  0  0  0  0
  5 11  1  0  0  0  0
 11 30  1  0  0  0  0
  5 12  1  0  0  0  0
 12 16  1  0  0  0  0
 12 31  1  0  0  0  0
 13 16  1  0  0  0  0
 13 19  1  0  0  0  0
 14 22  1  0  0  0  0
  9 15  1  0  0  0  0
  7 16  1  0  0  0  0
 17 25  1  0  0  0  0
  3 18  1  0  0  0  0
  7 18  1  0  0  0  0
 18 22  1  0  0  0  0
 19 32  1  0  0  0  0
 19 33  1  0  0  0  0
 19 34  1  0  0  0  0
 20 24  1  0  0  0  0
 20 35  1  0  0  0  0
 20 36  1  0  0  0  0
 20 37  1  0  0  0  0
 21 24  1  0  0  0  0
 21 38  1  0  0  0  0
 21 39  1  0  0  0  0
 21 40  1  0  0  0  0
 22 41  1  0  0  0  0
 22 42  1  0  0  0  0
  9 23  1  0  0  0  0
 23 24  1  0  0  0  0
 23 43  1  0  0  0  0
 23 44  1  0  0  0  0
M  END
>  <pdb_header>
REMARK   1 CREATED WITH MDTraj 1.9.4, 2020-08-14
CRYST1   96.876   96.876   96.876  90.00  90.00  90.00 P 1           1 


$$$$
EN300-115150-neutral-primary_aminebackwards
  PyMOL2.3          3D                             0

 46 48  0  0  0  0  0  0  0  0999 V2000
   41.2250   54.5410   60.9560 C   0  0  0  0  0  0  0  0  0  0  0  0
   42.7650   52.8910   60.2560 N   0  0  0  0  0  0  0  0  0  0  0  0
   45.4750   54.0810   63.2560 O   0  0  0  0  0  0  0  0  0  0  0  0
   47.2450   55.3610   65.9060 C   0  0  0  0  0  0  0  0  0  0  0  0
   43.3650   53.7910   63.8360 N   0  0  0  0  0  0  0  0  0  0  0  0
   47.5750   52.9910   65.7760 C   0  0  0  0  0  0  0  0  0  0  0  0
   49.2350   56.8510   66.1060 N   0  0  0  0  0  0  0  0  0  0  0  0
   49.4450   54.5310   65.9960 C   0  0  0  0  0  0  0  0  0  0  0  0
   41.7050   53.7410   59.9760 C   0  0  0  0  0  0  0  0  0  0  0  0
   43.3050   52.9510   61.4960 C   0  0  0  0  0  0  0  0  0  0  0  0
   41.6850   54.4610   62.2260 C   0  0  0  0  0  0  0  0  0  0  0  0
   46.6950   54.0610   65.7260 C   0  0  0  0  0  0  0  0  0  0  0  0
   48.6050   55.6010   66.0260 C   0  0  0  0  0  0  0  0  0  0  0  0
   42.7350   53.7010   62.5660 C   0  0  0  0  0  0  0  0  0  0  0  0
   48.9550   53.1810   65.8860 C   0  0  0  0  0  0  0  0  0  0  0  0
   44.6650   53.9110   64.1660 C   0  0  0  0  0  0  0  0  0  0  0  0
   49.3550   60.0510   64.1360 C   0  0  0  0  0  0  0  0  0  0  0  0
   49.4550   59.2110   65.4060 C   0  0  0  0  0  0  0  0  0  0  0  0
   48.9350   59.0210   63.0960 C   0  0  0  0  0  0  0  0  0  0  0  0
   48.8050   57.8610   65.2060 C   0  0  0  0  0  0  0  0  0  0  0  0
   49.0550   57.6110   63.6860 C   0  0  0  0  0  0  0  0  0  0  0  0
   41.0950   55.4310   63.2360 C   0  0  0  0  0  0  0  0  0  0  0  0
   45.1650   53.8710   65.6360 C   0  0  0  0  0  0  0  0  0  0  0  0
   50.1050   51.7510   65.8360 Cl  0  0  0  0  0  0  0  0  0  0  0  0
   50.2850   57.1710   63.4360 F   0  0  0  0  0  0  0  0  0  0  0  0
   40.4250   55.2310   60.7060 H   0  0  0  0  0  0  0  0  0  0  0  0
   46.6550   56.2710   65.8360 H   0  0  0  0  0  0  0  0  0  0  0  0
   47.3150   51.9410   65.7060 H   0  0  0  0  0  0  0  0  0  0  0  0
   50.5250   54.6010   66.0260 H   0  0  0  0  0  0  0  0  0  0  0  0
   41.2350   53.7010   58.9960 H   0  0  0  0  0  0  0  0  0  0  0  0
   44.1950   52.3610   61.6560 H   0  0  0  0  0  0  0  0  0  0  0  0
   48.5650   60.8010   64.2060 H   0  0  0  0  0  0  0  0  0  0  0  0
   50.3350   60.4810   63.9460 H   0  0  0  0  0  0  0  0  0  0  0  0
   50.5150   58.9510   65.5160 H   0  0  0  0  0  0  0  0  0  0  0  0
   49.0250   59.6410   66.3160 H   0  0  0  0  0  0  0  0  0  0  0  0
   47.9150   59.1910   62.7460 H   0  0  0  0  0  0  0  0  0  0  0  0
   49.5650   59.1110   62.2060 H   0  0  0  0  0  0  0  0  0  0  0  0
   47.7150   57.9110   65.2860 H   0  0  0  0  0  0  0  0  0  0  0  0
   48.2350   57.0010   63.2960 H   0  0  0  0  0  0  0  0  0  0  0  0
   40.4450   56.1910   62.7860 H   0  0  0  0  0  0  0  0  0  0  0  0
   40.5350   54.8110   63.9460 H   0  0  0  0  0  0  0  0  0  0  0  0
   41.8650   55.9810   63.7760 H   0  0  0  0  0  0  0  0  0  0  0  0
   44.9850   52.8710   66.0360 H   0  0  0  0  0  0  0  0  0  0  0  0
   44.7050   54.6510   66.2460 H   0  0  0  0  0  0  0  0  0  0  0  0
   42.7650   53.9010   64.6560 H   0  0  0  0  0  0  0  0  0  0  0  0
   50.2350   56.7910   66.2960 H   0  0  0  0  0  0  0  0  0  0  0  0
  1  9  1  0  0  0  0
  1 11  1  0  0  0  0
  1 26  1  0  0  0  0
  4 12  1  0  0  0  0
  4 13  1  0  0  0  0
  4 27  1  0  0  0  0
  5 45  1  0  0  0  0
  6 12  1  0  0  0  0
  6 15  1  0  0  0  0
  6 28  1  0  0  0  0
  7 46  1  0  0  0  0
  8 13  1  0  0  0  0
  8 15  1  0  0  0  0
  8 29  1  0  0  0  0
  2  9  1  0  0  0  0
  9 30  1  0  0  0  0
  2 10  1  0  0  0  0
 10 14  1  0  0  0  0
 10 31  1  0  0  0  0
 11 14  1  0  0  0  0
 11 22  1  0  0  0  0
 12 23  1  0  0  0  0
  7 13  1  0  0  0  0
  5 14  1  0  0  0  0
 15 24  1  0  0  0  0
  3 16  1  0  0  0  0
  5 16  1  0  0  0  0
 16 23  1  0  0  0  0
 17 18  1  0  0  0  0
 17 19  1  0  0  0  0
 17 32  1  0  0  0  0
 17 33  1  0  0  0  0
 18 20  1  0  0  0  0
 18 34  1  0  0  0  0
 18 35  1  0  0  0  0
 19 21  1  0  0  0  0
 19 36  1  0  0  0  0
 19 37  1  0  0  0  0
  7 20  1  0  0  0  0
 20 21  1  0  0  0  0
 20 38  1  0  0  0  0
 21 25  1  0  0  0  0
 21 39  1  0  0  0  0
 22 40  1  0  0  0  0
 22 41  1  0  0  0  0
 22 42  1  0  0  0  0
 23 43  1  0  0  0  0
 23 44  1  0  0  0  0
M  END
>  <pdb_header>
REMARK   1 CREATED WITH MDTraj 1.9.4, 2020-08-14
CRYST1   96.928   96.928   96.928  90.00  90.00  90.00 P 1           1 


$$$$
