EN300-26624333-charged-boronic_esterbackwards
  PyMOL2.3          3D                             0

 48 51  0  0  0  0  0  0  0  0999 V2000
   49.2632   53.2532   67.4008 C   0  0  0  0  0  0  0  0  0  0  0  0
   44.0211   52.6946   61.1914 N   0  0  0  0  0  0  0  0  0  0  0  0
   43.7150   50.3840   64.4104 O   0  0  0  0  0  0  0  0  0  0  0  0
   50.7477   52.1684   65.8260 C   0  0  0  0  0  0  0  0  0  0  0  0
   44.4162   52.4640   64.8400 N   0  0  0  0  0  0  0  0  0  0  0  0
   50.2586   54.2672   67.6910 C   0  0  0  0  0  0  0  0  0  0  0  0
   51.7461   53.1113   66.0978 C   0  0  0  0  0  0  0  0  0  0  0  0
   43.2760   54.6753   62.1864 C   0  0  0  0  0  0  0  0  0  0  0  0
   47.1385   51.3337   66.6517 C   0  0  0  0  0  0  0  0  0  0  0  0
   48.8906   49.8288   65.9762 C   0  0  0  0  0  0  0  0  0  0  0  0
   46.6870   49.0388   66.1009 C   0  0  0  0  0  0  0  0  0  0  0  0
   43.5146   53.9397   61.0744 C   0  0  0  0  0  0  0  0  0  0  0  0
   44.3626   52.2795   62.3890 C   0  0  0  0  0  0  0  0  0  0  0  0
   49.4935   52.2233   66.4794 C   0  0  0  0  0  0  0  0  0  0  0  0
   48.5059   51.1671   66.3999 C   0  0  0  0  0  0  0  0  0  0  0  0
   51.5229   54.1419   67.0499 C   0  0  0  0  0  0  0  0  0  0  0  0
   43.4613   54.1901   63.4671 C   0  0  0  0  0  0  0  0  0  0  0  0
   46.2189   50.2982   66.4715 C   0  0  0  0  0  0  0  0  0  0  0  0
   44.0687   52.9612   63.5674 C   0  0  0  0  0  0  0  0  0  0  0  0
   47.9856   48.7728   65.8613 C   0  0  0  0  0  0  0  0  0  0  0  0
   44.2895   51.1803   65.2283 C   0  0  0  0  0  0  0  0  0  0  0  0
   52.1484   56.5778   67.6086 C   0  0  0  0  0  0  0  0  0  0  0  0
   52.5991   55.1993   67.2872 C   0  0  0  0  0  0  0  0  0  0  0  0
   52.8388   55.7764   68.6791 C   0  0  0  0  0  0  0  0  0  0  0  0
   42.9106   55.0014   64.6077 C   0  0  0  0  0  0  0  0  0  0  0  0
   44.7890   50.6593   66.5347 C   0  0  0  0  0  0  0  0  0  0  0  0
   48.5548   47.1744   65.4112 Cl  0  0  0  0  0  0  0  0  0  0  0  0
   52.0864   55.3912   69.7622 F   0  0  0  0  0  0  0  0  0  0  0  0
   54.1051   56.1597   68.9896 F   0  0  0  0  0  0  0  0  0  0  0  0
   48.3470   53.2696   67.9802 H   0  0  0  0  0  0  0  0  0  0  0  0
   50.8952   51.4115   65.0572 H   0  0  0  0  0  0  0  0  0  0  0  0
   49.9626   55.0216   68.4102 H   0  0  0  0  0  0  0  0  0  0  0  0
   52.6037   53.1562   65.4333 H   0  0  0  0  0  0  0  0  0  0  0  0
   42.7743   55.6150   61.9782 H   0  0  0  0  0  0  0  0  0  0  0  0
   46.7689   52.2963   66.9966 H   0  0  0  0  0  0  0  0  0  0  0  0
   49.9404   49.5641   65.8527 H   0  0  0  0  0  0  0  0  0  0  0  0
   46.0070   48.2163   65.9511 H   0  0  0  0  0  0  0  0  0  0  0  0
   43.1402   54.2563   60.1044 H   0  0  0  0  0  0  0  0  0  0  0  0
   44.8963   51.3391   62.2946 H   0  0  0  0  0  0  0  0  0  0  0  0
   51.0705   56.7325   67.7283 H   0  0  0  0  0  0  0  0  0  0  0  0
   52.6385   57.4139   67.1043 H   0  0  0  0  0  0  0  0  0  0  0  0
   53.4790   55.0795   66.6414 H   0  0  0  0  0  0  0  0  0  0  0  0
   43.0333   54.6112   65.6249 H   0  0  0  0  0  0  0  0  0  0  0  0
   43.3753   55.9891   64.6353 H   0  0  0  0  0  0  0  0  0  0  0  0
   41.8865   55.2835   64.3745 H   0  0  0  0  0  0  0  0  0  0  0  0
   44.1926   49.7867   66.8047 H   0  0  0  0  0  0  0  0  0  0  0  0
   44.4769   51.3322   67.3376 H   0  0  0  0  0  0  0  0  0  0  0  0
   44.7835   53.1295   65.5244 H   0  0  0  0  0  0  0  0  0  0  0  0
  1  6  1  0  0  0  0
  1 14  1  0  0  0  0
  1 30  1  0  0  0  0
  4  7  1  0  0  0  0
  4 14  1  0  0  0  0
  4 31  1  0  0  0  0
  5 48  1  0  0  0  0
  6 16  1  0  0  0  0
  6 32  1  0  0  0  0
  7 16  1  0  0  0  0
  7 33  1  0  0  0  0
  8 12  1  0  0  0  0
  8 17  1  0  0  0  0
  8 34  1  0  0  0  0
  9 15  1  0  0  0  0
  9 18  1  0  0  0  0
  9 35  1  0  0  0  0
 10 15  1  0  0  0  0
 10 20  1  0  0  0  0
 10 36  1  0  0  0  0
 11 18  1  0  0  0  0
 11 20  1  0  0  0  0
 11 37  1  0  0  0  0
  2 12  1  0  0  0  0
 12 38  1  0  0  0  0
  2 13  1  0  0  0  0
 13 19  1  0  0  0  0
 13 39  1  0  0  0  0
 14 15  1  0  0  0  0
 16 23  1  0  0  0  0
 17 19  1  0  0  0  0
 17 25  1  0  0  0  0
 18 26  1  0  0  0  0
  5 19  1  0  0  0  0
 20 27  1  0  0  0  0
  3 21  1  0  0  0  0
  5 21  1  0  0  0  0
 21 26  1  0  0  0  0
 22 23  1  0  0  0  0
 22 24  1  0  0  0  0
 22 40  1  0  0  0  0
 22 41  1  0  0  0  0
 23 24  1  0  0  0  0
 23 42  1  0  0  0  0
 24 28  1  0  0  0  0
 24 29  1  0  0  0  0
 25 43  1  0  0  0  0
 25 44  1  0  0  0  0
 25 45  1  0  0  0  0
 26 46  1  0  0  0  0
 26 47  1  0  0  0  0
M  END
>  <pdb_header>
REMARK   1 CREATED WITH MDTraj 1.9.4, 2020-08-14
CRYST1   96.784   96.784   96.784  90.00  90.00  90.00 P 1           1 


$$$$
EN300-365771-charged-boronic_esterbackwards
  PyMOL2.3          3D                             0

 47 49  0  0  0  0  0  0  0  0999 V2000
   49.4319   49.0056   67.0782 C   0  0  0  0  0  0  0  0  0  0  0  0
   44.3418   51.8975   62.0288 N   0  0  0  0  0  0  0  0  0  0  0  0
   42.3650   49.5150   64.8114 O   0  0  0  0  0  0  0  0  0  0  0  0
   52.1552   52.0936   67.4786 S   0  0  0  0  0  0  0  0  0  0  0  0
   50.5729   49.7006   67.4292 C   0  0  0  0  0  0  0  0  0  0  0  0
   43.5195   51.2295   65.6228 N   0  0  0  0  0  0  0  0  0  0  0  0
   51.8800   53.2718   68.3275 O   0  0  0  0  0  0  0  0  0  0  0  0
   44.2068   53.9997   63.2520 C   0  0  0  0  0  0  0  0  0  0  0  0
   53.3530   51.3386   67.9671 O   0  0  0  0  0  0  0  0  0  0  0  0
   45.8460   49.3114   66.6811 C   0  0  0  0  0  0  0  0  0  0  0  0
   47.1757   47.5653   65.8383 C   0  0  0  0  0  0  0  0  0  0  0  0
   44.8602   47.3078   65.9834 C   0  0  0  0  0  0  0  0  0  0  0  0
   49.4961   51.6947   66.6304 C   0  0  0  0  0  0  0  0  0  0  0  0
   44.2594   53.2358   62.0945 C   0  0  0  0  0  0  0  0  0  0  0  0
   43.9881   51.3011   63.2063 C   0  0  0  0  0  0  0  0  0  0  0  0
   48.3471   49.6292   66.4534 C   0  0  0  0  0  0  0  0  0  0  0  0
   47.0810   48.8298   66.3278 C   0  0  0  0  0  0  0  0  0  0  0  0
   43.9128   53.3647   64.4847 C   0  0  0  0  0  0  0  0  0  0  0  0
   44.6934   48.5603   66.5333 C   0  0  0  0  0  0  0  0  0  0  0  0
   43.7408   51.9838   64.4759 C   0  0  0  0  0  0  0  0  0  0  0  0
   50.6297   51.1108   67.2172 C   0  0  0  0  0  0  0  0  0  0  0  0
   46.0020   46.8069   65.5978 C   0  0  0  0  0  0  0  0  0  0  0  0
   48.3948   51.0183   66.2710 C   0  0  0  0  0  0  0  0  0  0  0  0
   42.9753   49.9727   65.7191 C   0  0  0  0  0  0  0  0  0  0  0  0
   44.0168   54.1139   65.7813 C   0  0  0  0  0  0  0  0  0  0  0  0
   52.6599   52.7336   65.7770 C   0  0  0  0  0  0  0  0  0  0  0  0
   43.3481   49.0232   66.8226 C   0  0  0  0  0  0  0  0  0  0  0  0
   46.1068   45.2412   64.8472 Cl  0  0  0  0  0  0  0  0  0  0  0  0
   47.1790   51.9969   65.5706 Cl  0  0  0  0  0  0  0  0  0  0  0  0
   49.4121   47.9256   67.2181 H   0  0  0  0  0  0  0  0  0  0  0  0
   51.4205   49.1987   67.8881 H   0  0  0  0  0  0  0  0  0  0  0  0
   44.3346   55.0737   63.1106 H   0  0  0  0  0  0  0  0  0  0  0  0
   45.7243   50.3222   67.0532 H   0  0  0  0  0  0  0  0  0  0  0  0
   48.1351   47.1561   65.5528 H   0  0  0  0  0  0  0  0  0  0  0  0
   43.9012   46.8664   65.7230 H   0  0  0  0  0  0  0  0  0  0  0  0
   49.5382   52.7745   66.5005 H   0  0  0  0  0  0  0  0  0  0  0  0
   44.2920   53.7493   61.1411 H   0  0  0  0  0  0  0  0  0  0  0  0
   43.8378   50.2344   63.0892 H   0  0  0  0  0  0  0  0  0  0  0  0
   43.5262   55.0910   65.7085 H   0  0  0  0  0  0  0  0  0  0  0  0
   43.6478   53.5246   66.6146 H   0  0  0  0  0  0  0  0  0  0  0  0
   45.0725   54.3813   65.9007 H   0  0  0  0  0  0  0  0  0  0  0  0
   52.9801   51.8407   65.2253 H   0  0  0  0  0  0  0  0  0  0  0  0
   51.8825   53.3146   65.2539 H   0  0  0  0  0  0  0  0  0  0  0  0
   53.4399   53.4669   65.9764 H   0  0  0  0  0  0  0  0  0  0  0  0
   42.5944   48.2368   66.9416 H   0  0  0  0  0  0  0  0  0  0  0  0
   43.3263   49.5401   67.7941 H   0  0  0  0  0  0  0  0  0  0  0  0
   43.9386   51.5006   66.5218 H   0  0  0  0  0  0  0  0  0  0  0  0
  1  5  1  0  0  0  0
  1 16  1  0  0  0  0
  1 30  1  0  0  0  0
  5 21  1  0  0  0  0
  5 31  1  0  0  0  0
  6 47  1  0  0  0  0
  4  7  1  0  0  0  0
  8 14  1  0  0  0  0
  8 18  1  0  0  0  0
  8 32  1  0  0  0  0
  4  9  1  0  0  0  0
 10 17  1  0  0  0  0
 10 19  1  0  0  0  0
 10 33  1  0  0  0  0
 11 17  1  0  0  0  0
 11 22  1  0  0  0  0
 11 34  1  0  0  0  0
 12 19  1  0  0  0  0
 12 22  1  0  0  0  0
 12 35  1  0  0  0  0
 13 21  1  0  0  0  0
 13 23  1  0  0  0  0
 13 36  1  0  0  0  0
  2 14  1  0  0  0  0
 14 37  1  0  0  0  0
  2 15  1  0  0  0  0
 15 20  1  0  0  0  0
 15 38  1  0  0  0  0
 16 17  1  0  0  0  0
 16 23  1  0  0  0  0
 18 20  1  0  0  0  0
 18 25  1  0  0  0  0
 19 27  1  0  0  0  0
  6 20  1  0  0  0  0
  4 21  1  0  0  0  0
 22 28  1  0  0  0  0
 23 29  1  0  0  0  0
  3 24  1  0  0  0  0
  6 24  1  0  0  0  0
 24 27  1  0  0  0  0
 25 39  1  0  0  0  0
 25 40  1  0  0  0  0
 25 41  1  0  0  0  0
  4 26  1  0  0  0  0
 26 42  1  0  0  0  0
 26 43  1  0  0  0  0
 26 44  1  0  0  0  0
 27 45  1  0  0  0  0
 27 46  1  0  0  0  0
M  END
>  <pdb_header>
REMARK   1 CREATED WITH MDTraj 1.9.4, 2020-08-14
CRYST1   96.994   96.994   96.994  90.00  90.00  90.00 P 1           1 


$$$$
EN300-316592-charged-boronic_esterbackwards
  PyMOL2.3          3D                             0

 51 53  0  0  0  0  0  0  0  0999 V2000
   50.4839   51.3315   69.5208 C   0  0  0  0  0  0  0  0  0  0  0  0
   44.2716   52.8057   61.3927 N   0  0  0  0  0  0  0  0  0  0  0  0
   54.7279   53.4062   69.8116 O   0  0  0  0  0  0  0  0  0  0  0  0
   51.4470   51.8985   70.2902 C   0  0  0  0  0  0  0  0  0  0  0  0
   44.7520   52.4759   65.0634 N   0  0  0  0  0  0  0  0  0  0  0  0
   46.9181   52.0335   64.6156 O   0  0  0  0  0  0  0  0  0  0  0  0
   43.0237   54.5843   62.5254 C   0  0  0  0  0  0  0  0  0  0  0  0
   52.2091   50.9132   66.3594 O   0  0  0  0  0  0  0  0  0  0  0  0
   48.4067   50.6602   67.4204 C   0  0  0  0  0  0  0  0  0  0  0  0
   53.5626   52.9298   71.7302 O   0  0  0  0  0  0  0  0  0  0  0  0
   49.9709   48.9006   66.8319 C   0  0  0  0  0  0  0  0  0  0  0  0
   52.9204   51.8098   68.3328 C   0  0  0  0  0  0  0  0  0  0  0  0
   47.6583   48.7869   66.0834 C   0  0  0  0  0  0  0  0  0  0  0  0
   43.4036   53.8283   61.3814 C   0  0  0  0  0  0  0  0  0  0  0  0
   44.6312   52.4459   62.6403 C   0  0  0  0  0  0  0  0  0  0  0  0
   50.6840   50.8386   68.2435 C   0  0  0  0  0  0  0  0  0  0  0  0
   49.6468   50.0867   67.5482 C   0  0  0  0  0  0  0  0  0  0  0  0
   52.7078   52.1899   69.6751 C   0  0  0  0  0  0  0  0  0  0  0  0
   43.4354   54.1665   63.8531 C   0  0  0  0  0  0  0  0  0  0  0  0
   47.3960   50.0754   66.6479 C   0  0  0  0  0  0  0  0  0  0  0  0
   44.3072   53.0047   63.8636 C   0  0  0  0  0  0  0  0  0  0  0  0
   51.8900   51.2219   67.6220 C   0  0  0  0  0  0  0  0  0  0  0  0
   48.9007   48.2432   66.1665 C   0  0  0  0  0  0  0  0  0  0  0  0
   53.7428   52.9120   70.4151 C   0  0  0  0  0  0  0  0  0  0  0  0
   45.9297   51.8056   65.3514 C   0  0  0  0  0  0  0  0  0  0  0  0
   42.9954   54.8666   65.1779 C   0  0  0  0  0  0  0  0  0  0  0  0
   51.4341   51.5957   65.3231 C   0  0  0  0  0  0  0  0  0  0  0  0
   54.6126   53.6257   72.3554 C   0  0  0  0  0  0  0  0  0  0  0  0
   46.0523   50.7869   66.5149 C   0  0  0  0  0  0  0  0  0  0  0  0
   49.1544   46.6224   65.5147 Cl  0  0  0  0  0  0  0  0  0  0  0  0
   49.5041   51.2063   69.9548 H   0  0  0  0  0  0  0  0  0  0  0  0
   51.2710   52.3213   71.2766 H   0  0  0  0  0  0  0  0  0  0  0  0
   42.4988   55.5079   62.2893 H   0  0  0  0  0  0  0  0  0  0  0  0
   48.1330   51.6283   67.8403 H   0  0  0  0  0  0  0  0  0  0  0  0
   50.9452   48.4221   66.7907 H   0  0  0  0  0  0  0  0  0  0  0  0
   53.8688   52.0013   67.8386 H   0  0  0  0  0  0  0  0  0  0  0  0
   46.8994   48.2739   65.5098 H   0  0  0  0  0  0  0  0  0  0  0  0
   42.9818   54.2296   60.4663 H   0  0  0  0  0  0  0  0  0  0  0  0
   45.2144   51.5373   62.6996 H   0  0  0  0  0  0  0  0  0  0  0  0
   42.1906   55.5904   64.9756 H   0  0  0  0  0  0  0  0  0  0  0  0
   42.5541   54.1569   65.8823 H   0  0  0  0  0  0  0  0  0  0  0  0
   43.7885   55.3843   65.7140 H   0  0  0  0  0  0  0  0  0  0  0  0
   51.9181   51.3347   64.3796 H   0  0  0  0  0  0  0  0  0  0  0  0
   51.5307   52.6842   65.4536 H   0  0  0  0  0  0  0  0  0  0  0  0
   50.3546   51.4385   65.2488 H   0  0  0  0  0  0  0  0  0  0  0  0
   54.3899   53.7624   73.4148 H   0  0  0  0  0  0  0  0  0  0  0  0
   54.7630   54.6612   72.0270 H   0  0  0  0  0  0  0  0  0  0  0  0
   55.5752   53.1171   72.2490 H   0  0  0  0  0  0  0  0  0  0  0  0
   45.2740   50.0166   66.4589 H   0  0  0  0  0  0  0  0  0  0  0  0
   45.8461   51.3227   67.4455 H   0  0  0  0  0  0  0  0  0  0  0  0
   44.0845   52.4175   65.8255 H   0  0  0  0  0  0  0  0  0  0  0  0
  1  4  1  0  0  0  0
  1 16  1  0  0  0  0
  1 31  1  0  0  0  0
  4 18  1  0  0  0  0
  4 32  1  0  0  0  0
  5 51  1  0  0  0  0
  7 14  1  0  0  0  0
  7 19  1  0  0  0  0
  7 33  1  0  0  0  0
  9 17  1  0  0  0  0
  9 20  1  0  0  0  0
  9 34  1  0  0  0  0
 11 17  1  0  0  0  0
 11 23  1  0  0  0  0
 11 35  1  0  0  0  0
 12 18  1  0  0  0  0
 12 22  1  0  0  0  0
 12 36  1  0  0  0  0
 13 20  1  0  0  0  0
 13 23  1  0  0  0  0
 13 37  1  0  0  0  0
  2 14  1  0  0  0  0
 14 38  1  0  0  0  0
  2 15  1  0  0  0  0
 15 21  1  0  0  0  0
 15 39  1  0  0  0  0
 16 17  1  0  0  0  0
 16 22  1  0  0  0  0
 18 24  1  0  0  0  0
 19 21  1  0  0  0  0
 19 26  1  0  0  0  0
 20 29  1  0  0  0  0
  5 21  1  0  0  0  0
  8 22  1  0  0  0  0
 23 30  1  0  0  0  0
  3 24  1  0  0  0  0
 10 24  1  0  0  0  0
  5 25  1  0  0  0  0
  6 25  1  0  0  0  0
 25 29  1  0  0  0  0
 26 40  1  0  0  0  0
 26 41  1  0  0  0  0
 26 42  1  0  0  0  0
  8 27  1  0  0  0  0
 27 43  1  0  0  0  0
 27 44  1  0  0  0  0
 27 45  1  0  0  0  0
 10 28  1  0  0  0  0
 28 46  1  0  0  0  0
 28 47  1  0  0  0  0
 28 48  1  0  0  0  0
 29 49  1  0  0  0  0
 29 50  1  0  0  0  0
M  END
>  <pdb_header>
REMARK   1 CREATED WITH MDTraj 1.9.4, 2020-08-14
CRYST1   96.878   96.878   96.878  90.00  90.00  90.00 P 1           1 


$$$$
EN300-298506-charged-boronic_esterbackwards
  PyMOL2.3          3D                             0

 47 49  0  0  0  0  0  0  0  0999 V2000
   50.8307   48.9715   69.2394 C   0  0  0  0  0  0  0  0  0  0  0  0
   43.5423   50.8035   63.1675 N   0  0  0  0  0  0  0  0  0  0  0  0
   44.7986   47.4007   65.1489 O   0  0  0  0  0  0  0  0  0  0  0  0
   51.6189   49.6896   70.1251 C   0  0  0  0  0  0  0  0  0  0  0  0
   45.1606   49.3402   66.1556 N   0  0  0  0  0  0  0  0  0  0  0  0
   45.0754   52.4306   64.1818 C   0  0  0  0  0  0  0  0  0  0  0  0
   48.5375   48.2997   67.4280 C   0  0  0  0  0  0  0  0  0  0  0  0
   50.2641   47.9589   65.7709 C   0  0  0  0  0  0  0  0  0  0  0  0
   52.2807   51.1693   68.3639 C   0  0  0  0  0  0  0  0  0  0  0  0
   48.1081   46.9379   65.4819 C   0  0  0  0  0  0  0  0  0  0  0  0
   44.1333   52.0944   63.2005 C   0  0  0  0  0  0  0  0  0  0  0  0
   43.8768   49.9940   64.1383 C   0  0  0  0  0  0  0  0  0  0  0  0
   50.7422   49.3717   67.8319 C   0  0  0  0  0  0  0  0  0  0  0  0
   49.8626   48.6217   66.9783 C   0  0  0  0  0  0  0  0  0  0  0  0
   45.4140   51.5701   65.2319 C   0  0  0  0  0  0  0  0  0  0  0  0
   47.6294   47.4330   66.6887 C   0  0  0  0  0  0  0  0  0  0  0  0
   51.4877   50.4577   67.4460 C   0  0  0  0  0  0  0  0  0  0  0  0
   44.8241   50.2753   65.1358 C   0  0  0  0  0  0  0  0  0  0  0  0
   52.4479   50.7433   69.7077 C   0  0  0  0  0  0  0  0  0  0  0  0
   49.4326   47.0614   65.0823 C   0  0  0  0  0  0  0  0  0  0  0  0
   45.3249   47.9771   66.0450 C   0  0  0  0  0  0  0  0  0  0  0  0
   46.2916   52.1257   66.3667 C   0  0  0  0  0  0  0  0  0  0  0  0
   50.1373   51.9863   65.8053 C   0  0  0  0  0  0  0  0  0  0  0  0
   46.1226   47.2436   67.1207 C   0  0  0  0  0  0  0  0  0  0  0  0
   51.3511   51.1109   66.0223 C   0  0  0  0  0  0  0  0  0  0  0  0
   49.9909   46.1127   63.7937 Cl  0  0  0  0  0  0  0  0  0  0  0  0
   53.2705   51.4263   70.4631 F   0  0  0  0  0  0  0  0  0  0  0  0
   50.1392   48.2001   69.5627 H   0  0  0  0  0  0  0  0  0  0  0  0
   51.5887   49.2800   71.1286 H   0  0  0  0  0  0  0  0  0  0  0  0
   45.3631   53.4770   64.1484 H   0  0  0  0  0  0  0  0  0  0  0  0
   48.1886   48.6118   68.4105 H   0  0  0  0  0  0  0  0  0  0  0  0
   51.3112   48.0339   65.4930 H   0  0  0  0  0  0  0  0  0  0  0  0
   52.8810   52.0143   68.0535 H   0  0  0  0  0  0  0  0  0  0  0  0
   47.5108   46.3105   64.8316 H   0  0  0  0  0  0  0  0  0  0  0  0
   43.8380   52.8015   62.4393 H   0  0  0  0  0  0  0  0  0  0  0  0
   43.3893   49.0310   64.1220 H   0  0  0  0  0  0  0  0  0  0  0  0
   45.6732   52.7863   66.9843 H   0  0  0  0  0  0  0  0  0  0  0  0
   46.8501   51.3560   66.9050 H   0  0  0  0  0  0  0  0  0  0  0  0
   46.9761   52.7949   65.8404 H   0  0  0  0  0  0  0  0  0  0  0  0
   49.2221   51.3897   65.9144 H   0  0  0  0  0  0  0  0  0  0  0  0
   50.1014   52.3275   64.7636 H   0  0  0  0  0  0  0  0  0  0  0  0
   50.2512   52.8969   66.4077 H   0  0  0  0  0  0  0  0  0  0  0  0
   45.9317   46.1725   67.2746 H   0  0  0  0  0  0  0  0  0  0  0  0
   46.0167   47.7216   68.1006 H   0  0  0  0  0  0  0  0  0  0  0  0
   52.2127   51.7686   65.9149 H   0  0  0  0  0  0  0  0  0  0  0  0
   51.4105   50.3005   65.2838 H   0  0  0  0  0  0  0  0  0  0  0  0
   45.5918   49.6869   67.0070 H   0  0  0  0  0  0  0  0  0  0  0  0
  1  4  1  0  0  0  0
  1 13  1  0  0  0  0
  1 28  1  0  0  0  0
  4 19  1  0  0  0  0
  4 29  1  0  0  0  0
  5 47  1  0  0  0  0
  6 11  1  0  0  0  0
  6 15  1  0  0  0  0
  6 30  1  0  0  0  0
  7 14  1  0  0  0  0
  7 16  1  0  0  0  0
  7 31  1  0  0  0  0
  8 14  1  0  0  0  0
  8 20  1  0  0  0  0
  8 32  1  0  0  0  0
  9 17  1  0  0  0  0
  9 19  1  0  0  0  0
  9 33  1  0  0  0  0
 10 16  1  0  0  0  0
 10 20  1  0  0  0  0
 10 34  1  0  0  0  0
  2 11  1  0  0  0  0
 11 35  1  0  0  0  0
  2 12  1  0  0  0  0
 12 18  1  0  0  0  0
 12 36  1  0  0  0  0
 13 14  1  0  0  0  0
 13 17  1  0  0  0  0
 15 18  1  0  0  0  0
 15 22  1  0  0  0  0
 16 24  1  0  0  0  0
 17 25  1  0  0  0  0
  5 18  1  0  0  0  0
 19 27  1  0  0  0  0
 20 26  1  0  0  0  0
  3 21  1  0  0  0  0
  5 21  1  0  0  0  0
 21 24  1  0  0  0  0
 22 37  1  0  0  0  0
 22 38  1  0  0  0  0
 22 39  1  0  0  0  0
 23 25  1  0  0  0  0
 23 40  1  0  0  0  0
 23 41  1  0  0  0  0
 23 42  1  0  0  0  0
 24 43  1  0  0  0  0
 24 44  1  0  0  0  0
 25 45  1  0  0  0  0
 25 46  1  0  0  0  0
M  END
>  <pdb_header>
REMARK   1 CREATED WITH MDTraj 1.9.4, 2020-08-14
CRYST1   96.831   96.831   96.831  90.00  90.00  90.00 P 1           1 


$$$$
EN300-1086686-charged-boronic_esterbackwards
  PyMOL2.3          3D                             0

 52 55  0  0  0  0  0  0  0  0999 V2000
   55.3841   51.4554   65.4833 C   0  0  0  0  0  0  0  0  0  0  0  0
   51.9732   55.5371   72.8662 N   0  0  0  0  0  0  0  0  0  0  0  0
   52.2866   52.5652   69.9595 O   0  0  0  0  0  0  0  0  0  0  0  0
   55.5743   49.1045   65.5201 C   0  0  0  0  0  0  0  0  0  0  0  0
   51.6562   54.5816   69.1977 N   0  0  0  0  0  0  0  0  0  0  0  0
   59.0690   49.6887   62.9322 O   0  0  0  0  0  0  0  0  0  0  0  0
   56.6069   51.5326   64.7052 C   0  0  0  0  0  0  0  0  0  0  0  0
   56.8267   49.1752   64.8776 C   0  0  0  0  0  0  0  0  0  0  0  0
   52.2788   57.4910   71.4282 C   0  0  0  0  0  0  0  0  0  0  0  0
   52.8055   51.2237   67.1380 C   0  0  0  0  0  0  0  0  0  0  0  0
   52.8407   48.8784   66.7487 C   0  0  0  0  0  0  0  0  0  0  0  0
   50.8338   49.9323   67.6604 C   0  0  0  0  0  0  0  0  0  0  0  0
   52.1859   56.8495   72.6788 C   0  0  0  0  0  0  0  0  0  0  0  0
   51.7062   54.8929   71.6446 C   0  0  0  0  0  0  0  0  0  0  0  0
   54.8579   50.2142   65.9175 C   0  0  0  0  0  0  0  0  0  0  0  0
   53.5137   50.1195   66.5635 C   0  0  0  0  0  0  0  0  0  0  0  0
   57.3749   50.4096   64.5438 C   0  0  0  0  0  0  0  0  0  0  0  0
   52.0087   56.7394   70.2458 C   0  0  0  0  0  0  0  0  0  0  0  0
   51.5317   51.1274   67.7316 C   0  0  0  0  0  0  0  0  0  0  0  0
   51.7915   55.3844   70.3693 C   0  0  0  0  0  0  0  0  0  0  0  0
   51.5066   48.8304   67.2044 C   0  0  0  0  0  0  0  0  0  0  0  0
   51.6303   53.1548   69.1241 C   0  0  0  0  0  0  0  0  0  0  0  0
   59.2576   51.7544   63.3331 C   0  0  0  0  0  0  0  0  0  0  0  0
   59.5326   50.7728   62.1761 C   0  0  0  0  0  0  0  0  0  0  0  0
   58.8305   50.4673   64.0812 C   0  0  0  0  0  0  0  0  0  0  0  0
   52.0257   57.4673   68.9708 C   0  0  0  0  0  0  0  0  0  0  0  0
   59.8665   50.2588   65.2225 C   0  0  0  0  0  0  0  0  0  0  0  0
   50.7464   52.3516   68.1340 C   0  0  0  0  0  0  0  0  0  0  0  0
   50.6979   47.3095   67.4887 Cl  0  0  0  0  0  0  0  0  0  0  0  0
   54.7802   52.3226   65.7089 H   0  0  0  0  0  0  0  0  0  0  0  0
   55.3089   48.1233   65.9131 H   0  0  0  0  0  0  0  0  0  0  0  0
   56.9373   52.4738   64.2843 H   0  0  0  0  0  0  0  0  0  0  0  0
   57.3051   48.2605   64.5496 H   0  0  0  0  0  0  0  0  0  0  0  0
   52.5833   58.5311   71.4432 H   0  0  0  0  0  0  0  0  0  0  0  0
   53.3665   52.1538   67.2090 H   0  0  0  0  0  0  0  0  0  0  0  0
   53.2038   47.9335   66.3641 H   0  0  0  0  0  0  0  0  0  0  0  0
   49.8117   49.9437   68.0410 H   0  0  0  0  0  0  0  0  0  0  0  0
   52.2768   57.5363   73.5154 H   0  0  0  0  0  0  0  0  0  0  0  0
   51.3195   53.8865   71.7664 H   0  0  0  0  0  0  0  0  0  0  0  0
   60.1393   52.2240   63.7745 H   0  0  0  0  0  0  0  0  0  0  0  0
   58.4929   52.4903   63.0676 H   0  0  0  0  0  0  0  0  0  0  0  0
   60.6097   50.6561   62.0063 H   0  0  0  0  0  0  0  0  0  0  0  0
   58.9658   50.9579   61.2614 H   0  0  0  0  0  0  0  0  0  0  0  0
   52.8252   57.1760   68.2938 H   0  0  0  0  0  0  0  0  0  0  0  0
   51.0654   57.2668   68.4804 H   0  0  0  0  0  0  0  0  0  0  0  0
   52.0508   58.5444   69.2029 H   0  0  0  0  0  0  0  0  0  0  0  0
   59.5289   49.4548   65.8816 H   0  0  0  0  0  0  0  0  0  0  0  0
   59.8849   51.2050   65.7589 H   0  0  0  0  0  0  0  0  0  0  0  0
   60.8752   50.0728   64.8388 H   0  0  0  0  0  0  0  0  0  0  0  0
   50.5827   52.9770   67.2552 H   0  0  0  0  0  0  0  0  0  0  0  0
   49.7975   52.0555   68.5881 H   0  0  0  0  0  0  0  0  0  0  0  0
   51.1748   55.1044   68.4640 H   0  0  0  0  0  0  0  0  0  0  0  0
  1  7  1  0  0  0  0
  1 15  1  0  0  0  0
  1 30  1  0  0  0  0
  4  8  1  0  0  0  0
  4 15  1  0  0  0  0
  4 31  1  0  0  0  0
  5 52  1  0  0  0  0
  7 17  1  0  0  0  0
  7 32  1  0  0  0  0
  8 17  1  0  0  0  0
  8 33  1  0  0  0  0
  9 13  1  0  0  0  0
  9 18  1  0  0  0  0
  9 34  1  0  0  0  0
 10 16  1  0  0  0  0
 10 19  1  0  0  0  0
 10 35  1  0  0  0  0
 11 16  1  0  0  0  0
 11 21  1  0  0  0  0
 11 36  1  0  0  0  0
 12 19  1  0  0  0  0
 12 21  1  0  0  0  0
 12 37  1  0  0  0  0
  2 13  1  0  0  0  0
 13 38  1  0  0  0  0
  2 14  1  0  0  0  0
 14 20  1  0  0  0  0
 14 39  1  0  0  0  0
 15 16  1  0  0  0  0
 17 25  1  0  0  0  0
 18 20  1  0  0  0  0
 18 26  1  0  0  0  0
 19 28  1  0  0  0  0
  5 20  1  0  0  0  0
 21 29  1  0  0  0  0
  3 22  1  0  0  0  0
  5 22  1  0  0  0  0
 22 28  1  0  0  0  0
 23 24  1  0  0  0  0
 23 25  1  0  0  0  0
 23 40  1  0  0  0  0
 23 41  1  0  0  0  0
  6 24  1  0  0  0  0
 24 42  1  0  0  0  0
 24 43  1  0  0  0  0
  6 25  1  0  0  0  0
 25 27  1  0  0  0  0
 26 44  1  0  0  0  0
 26 45  1  0  0  0  0
 26 46  1  0  0  0  0
 27 47  1  0  0  0  0
 27 48  1  0  0  0  0
 27 49  1  0  0  0  0
 28 50  1  0  0  0  0
 28 51  1  0  0  0  0
M  END
>  <pdb_header>
REMARK   1 CREATED WITH MDTraj 1.9.4, 2020-08-14
CRYST1   96.908   96.908   96.908  90.00  90.00  90.00 P 1           1 


$$$$
EN300-106778-charged-boronic_esterbackwards
  PyMOL2.3          3D                             0

 44 46  0  0  0  0  0  0  0  0999 V2000
   50.4117   53.3047   68.8442 C   0  0  0  0  0  0  0  0  0  0  0  0
   44.2157   52.4643   62.2851 N   0  0  0  0  0  0  0  0  0  0  0  0
   46.4983   51.1907   65.0882 O   0  0  0  0  0  0  0  0  0  0  0  0
   51.2484   54.2644   69.3565 C   0  0  0  0  0  0  0  0  0  0  0  0
   44.4376   51.8018   65.8650 N   0  0  0  0  0  0  0  0  0  0  0  0
   42.9683   54.1136   63.4423 C   0  0  0  0  0  0  0  0  0  0  0  0
   48.6421   51.3483   67.4153 C   0  0  0  0  0  0  0  0  0  0  0  0
   50.5196   49.8844   67.1502 C   0  0  0  0  0  0  0  0  0  0  0  0
   48.3360   49.0636   66.7935 C   0  0  0  0  0  0  0  0  0  0  0  0
   43.4728   53.5851   62.2729 C   0  0  0  0  0  0  0  0  0  0  0  0
   44.3666   51.7963   63.4440 C   0  0  0  0  0  0  0  0  0  0  0  0
   50.9537   52.3359   67.9295 C   0  0  0  0  0  0  0  0  0  0  0  0
   50.0882   51.1899   67.4055 C   0  0  0  0  0  0  0  0  0  0  0  0
   52.6050   54.3056   69.1137 C   0  0  0  0  0  0  0  0  0  0  0  0
   43.2363   53.5440   64.7117 C   0  0  0  0  0  0  0  0  0  0  0  0
   47.7802   50.2679   67.1693 C   0  0  0  0  0  0  0  0  0  0  0  0
   44.0282   52.3735   64.6530 C   0  0  0  0  0  0  0  0  0  0  0  0
   52.3426   52.3745   67.6149 C   0  0  0  0  0  0  0  0  0  0  0  0
   53.2176   53.3313   68.2756 C   0  0  0  0  0  0  0  0  0  0  0  0
   49.7119   48.8546   66.7693 C   0  0  0  0  0  0  0  0  0  0  0  0
   45.7249   51.2192   66.0194 C   0  0  0  0  0  0  0  0  0  0  0  0
   53.4496   55.4712   69.7182 C   0  0  0  0  0  0  0  0  0  0  0  0
   42.7259   54.0595   65.9821 C   0  0  0  0  0  0  0  0  0  0  0  0
   46.2700   50.5964   67.2763 C   0  0  0  0  0  0  0  0  0  0  0  0
   50.4365   47.3133   66.2868 Cl  0  0  0  0  0  0  0  0  0  0  0  0
   52.8780   51.4687   66.6782 F   0  0  0  0  0  0  0  0  0  0  0  0
   54.4424   53.5431   67.8430 F   0  0  0  0  0  0  0  0  0  0  0  0
   49.3722   53.2853   69.1498 H   0  0  0  0  0  0  0  0  0  0  0  0
   50.7169   55.0104   69.9482 H   0  0  0  0  0  0  0  0  0  0  0  0
   42.3456   54.9721   63.2430 H   0  0  0  0  0  0  0  0  0  0  0  0
   48.2645   52.3393   67.6492 H   0  0  0  0  0  0  0  0  0  0  0  0
   51.5762   49.6794   67.2327 H   0  0  0  0  0  0  0  0  0  0  0  0
   47.7345   48.1687   66.6874 H   0  0  0  0  0  0  0  0  0  0  0  0
   43.3146   54.0546   61.3020 H   0  0  0  0  0  0  0  0  0  0  0  0
   44.7848   50.7996   63.5088 H   0  0  0  0  0  0  0  0  0  0  0  0
   53.0387   56.4503   69.4733 H   0  0  0  0  0  0  0  0  0  0  0  0
   54.4276   55.4236   69.2479 H   0  0  0  0  0  0  0  0  0  0  0  0
   53.5388   55.2719   70.7930 H   0  0  0  0  0  0  0  0  0  0  0  0
   43.5428   54.2625   66.6734 H   0  0  0  0  0  0  0  0  0  0  0  0
   42.0545   54.9275   65.9654 H   0  0  0  0  0  0  0  0  0  0  0  0
   42.1072   53.2614   66.3944 H   0  0  0  0  0  0  0  0  0  0  0  0
   45.6959   49.6778   67.4302 H   0  0  0  0  0  0  0  0  0  0  0  0
   46.0967   51.3114   68.0808 H   0  0  0  0  0  0  0  0  0  0  0  0
   44.0824   52.1150   66.7639 H   0  0  0  0  0  0  0  0  0  0  0  0
  1  4  1  0  0  0  0
  1 12  1  0  0  0  0
  1 28  1  0  0  0  0
  4 14  1  0  0  0  0
  4 29  1  0  0  0  0
  5 44  1  0  0  0  0
  6 10  1  0  0  0  0
  6 15  1  0  0  0  0
  6 30  1  0  0  0  0
  7 13  1  0  0  0  0
  7 16  1  0  0  0  0
  7 31  1  0  0  0  0
  8 13  1  0  0  0  0
  8 20  1  0  0  0  0
  8 32  1  0  0  0  0
  9 16  1  0  0  0  0
  9 20  1  0  0  0  0
  9 33  1  0  0  0  0
  2 10  1  0  0  0  0
 10 34  1  0  0  0  0
  2 11  1  0  0  0  0
 11 17  1  0  0  0  0
 11 35  1  0  0  0  0
 12 13  1  0  0  0  0
 12 18  1  0  0  0  0
 14 19  1  0  0  0  0
 14 22  1  0  0  0  0
 15 17  1  0  0  0  0
 15 23  1  0  0  0  0
 16 24  1  0  0  0  0
  5 17  1  0  0  0  0
 18 19  1  0  0  0  0
 18 26  1  0  0  0  0
 19 27  1  0  0  0  0
 20 25  1  0  0  0  0
  3 21  1  0  0  0  0
  5 21  1  0  0  0  0
 21 24  1  0  0  0  0
 22 36  1  0  0  0  0
 22 37  1  0  0  0  0
 22 38  1  0  0  0  0
 23 39  1  0  0  0  0
 23 40  1  0  0  0  0
 23 41  1  0  0  0  0
 24 42  1  0  0  0  0
 24 43  1  0  0  0  0
M  END
>  <pdb_header>
REMARK   1 CREATED WITH MDTraj 1.9.4, 2020-08-14
CRYST1   96.909   96.909   96.909  90.00  90.00  90.00 P 1           1 


$$$$
EN300-303608-charged-boronic_esterbackwards
  PyMOL2.3          3D                             0

 49 52  0  0  0  0  0  0  0  0999 V2000
   52.6138   51.0086   66.7853 C   0  0  0  0  0  0  0  0  0  0  0  0
   43.2649   52.4034   62.1231 N   0  0  0  0  0  0  0  0  0  0  0  0
   45.8884   50.9230   64.9600 O   0  0  0  0  0  0  0  0  0  0  0  0
   53.8276   51.6411   67.0066 C   0  0  0  0  0  0  0  0  0  0  0  0
   44.6741   52.8094   65.5667 N   0  0  0  0  0  0  0  0  0  0  0  0
   54.9703   54.7201   68.6185 O   0  0  0  0  0  0  0  0  0  0  0  0
   42.3560   54.2165   63.1786 C   0  0  0  0  0  0  0  0  0  0  0  0
   51.4904   52.7020   68.0884 C   0  0  0  0  0  0  0  0  0  0  0  0
   48.9636   51.6185   67.0904 C   0  0  0  0  0  0  0  0  0  0  0  0
   49.9263   49.4796   67.1969 C   0  0  0  0  0  0  0  0  0  0  0  0
   47.5762   49.6785   67.1006 C   0  0  0  0  0  0  0  0  0  0  0  0
   42.4552   53.4486   62.0799 C   0  0  0  0  0  0  0  0  0  0  0  0
   43.9476   52.1299   63.2189 C   0  0  0  0  0  0  0  0  0  0  0  0
   51.3925   51.5041   67.3202 C   0  0  0  0  0  0  0  0  0  0  0  0
   50.1370   50.8589   67.2231 C   0  0  0  0  0  0  0  0  0  0  0  0
   53.8303   52.8351   67.6731 C   0  0  0  0  0  0  0  0  0  0  0  0
   52.6724   53.2909   68.2752 C   0  0  0  0  0  0  0  0  0  0  0  0
   43.1383   54.0383   64.3724 C   0  0  0  0  0  0  0  0  0  0  0  0
   47.6974   51.0817   67.1241 C   0  0  0  0  0  0  0  0  0  0  0  0
   43.9575   52.9409   64.3772 C   0  0  0  0  0  0  0  0  0  0  0  0
   48.6725   48.8667   67.1471 C   0  0  0  0  0  0  0  0  0  0  0  0
   45.6984   51.8689   65.7523 C   0  0  0  0  0  0  0  0  0  0  0  0
   52.6571   54.4133   69.3183 C   0  0  0  0  0  0  0  0  0  0  0  0
   55.1171   53.5106   67.8540 C   0  0  0  0  0  0  0  0  0  0  0  0
   54.1306   54.5439   69.8211 C   0  0  0  0  0  0  0  0  0  0  0  0
   42.8713   55.0137   65.5375 C   0  0  0  0  0  0  0  0  0  0  0  0
   46.4626   51.9274   67.0465 C   0  0  0  0  0  0  0  0  0  0  0  0
   48.4609   47.0993   67.3106 Cl  0  0  0  0  0  0  0  0  0  0  0  0
   52.4783   50.2290   66.0425 H   0  0  0  0  0  0  0  0  0  0  0  0
   54.6825   51.2291   66.4779 H   0  0  0  0  0  0  0  0  0  0  0  0
   41.7581   55.1271   63.1420 H   0  0  0  0  0  0  0  0  0  0  0  0
   50.6469   53.1162   68.6299 H   0  0  0  0  0  0  0  0  0  0  0  0
   48.9885   52.6980   66.9968 H   0  0  0  0  0  0  0  0  0  0  0  0
   50.8019   48.8824   67.4251 H   0  0  0  0  0  0  0  0  0  0  0  0
   46.6170   49.1762   67.1063 H   0  0  0  0  0  0  0  0  0  0  0  0
   41.7685   53.6370   61.2577 H   0  0  0  0  0  0  0  0  0  0  0  0
   44.5025   51.1956   63.2120 H   0  0  0  0  0  0  0  0  0  0  0  0
   52.3518   55.3731   68.8919 H   0  0  0  0  0  0  0  0  0  0  0  0
   51.9067   54.1535   70.0686 H   0  0  0  0  0  0  0  0  0  0  0  0
   55.6985   53.7485   66.9536 H   0  0  0  0  0  0  0  0  0  0  0  0
   55.7325   52.8384   68.4632 H   0  0  0  0  0  0  0  0  0  0  0  0
   54.1605   55.4275   70.4690 H   0  0  0  0  0  0  0  0  0  0  0  0
   54.5113   53.7093   70.4082 H   0  0  0  0  0  0  0  0  0  0  0  0
   42.2623   54.5086   66.2820 H   0  0  0  0  0  0  0  0  0  0  0  0
   43.8416   55.4064   65.8659 H   0  0  0  0  0  0  0  0  0  0  0  0
   42.3292   55.8483   65.0848 H   0  0  0  0  0  0  0  0  0  0  0  0
   45.7820   51.6382   67.8567 H   0  0  0  0  0  0  0  0  0  0  0  0
   46.7372   52.9796   67.1718 H   0  0  0  0  0  0  0  0  0  0  0  0
   44.7812   53.6178   66.1747 H   0  0  0  0  0  0  0  0  0  0  0  0
  1  4  1  0  0  0  0
  1 14  1  0  0  0  0
  1 29  1  0  0  0  0
  4 16  1  0  0  0  0
  4 30  1  0  0  0  0
  5 49  1  0  0  0  0
  7 12  1  0  0  0  0
  7 18  1  0  0  0  0
  7 31  1  0  0  0  0
  8 14  1  0  0  0  0
  8 17  1  0  0  0  0
  8 32  1  0  0  0  0
  9 15  1  0  0  0  0
  9 19  1  0  0  0  0
  9 33  1  0  0  0  0
 10 15  1  0  0  0  0
 10 21  1  0  0  0  0
 10 34  1  0  0  0  0
 11 19  1  0  0  0  0
 11 21  1  0  0  0  0
 11 35  1  0  0  0  0
  2 12  1  0  0  0  0
 12 36  1  0  0  0  0
  2 13  1  0  0  0  0
 13 20  1  0  0  0  0
 13 37  1  0  0  0  0
 14 15  1  0  0  0  0
 16 17  1  0  0  0  0
 16 24  1  0  0  0  0
 17 23  1  0  0  0  0
 18 20  1  0  0  0  0
 18 26  1  0  0  0  0
 19 27  1  0  0  0  0
  5 20  1  0  0  0  0
 21 28  1  0  0  0  0
  3 22  1  0  0  0  0
  5 22  1  0  0  0  0
 22 27  1  0  0  0  0
 23 25  1  0  0  0  0
 23 38  1  0  0  0  0
 23 39  1  0  0  0  0
  6 24  1  0  0  0  0
 24 40  1  0  0  0  0
 24 41  1  0  0  0  0
  6 25  1  0  0  0  0
 25 42  1  0  0  0  0
 25 43  1  0  0  0  0
 26 44  1  0  0  0  0
 26 45  1  0  0  0  0
 26 46  1  0  0  0  0
 27 47  1  0  0  0  0
 27 48  1  0  0  0  0
M  END
>  <pdb_header>
REMARK   1 CREATED WITH MDTraj 1.9.4, 2020-08-14
CRYST1   96.908   96.908   96.908  90.00  90.00  90.00 P 1           1 


$$$$
EN300-129678-charged-boronic_esterbackwards
  PyMOL2.3          3D                             0

 49 51  0  0  0  0  0  0  0  0999 V2000
   43.2560   54.7257   63.5188 C   0  0  0  0  0  0  0  0  0  0  0  0
   43.1020   52.4492   62.8964 N   0  0  0  0  0  0  0  0  0  0  0  0
   50.8587   56.6376   66.5920 O   0  0  0  0  0  0  0  0  0  0  0  0
   51.1192   53.8871   66.9097 C   0  0  0  0  0  0  0  0  0  0  0  0
   53.6580   53.0004   67.7206 N   0  0  0  0  0  0  0  0  0  0  0  0
   46.2063   51.1393   65.2129 O   0  0  0  0  0  0  0  0  0  0  0  0
   48.9735   51.8352   67.3252 C   0  0  0  0  0  0  0  0  0  0  0  0
   44.9734   52.7782   66.1645 N   0  0  0  0  0  0  0  0  0  0  0  0
   52.4209   56.9816   68.3365 O   0  0  0  0  0  0  0  0  0  0  0  0
   50.4892   50.2408   66.4584 C   0  0  0  0  0  0  0  0  0  0  0  0
   48.1936   49.5834   66.7531 C   0  0  0  0  0  0  0  0  0  0  0  0
   42.9271   53.6829   62.6109 C   0  0  0  0  0  0  0  0  0  0  0  0
   52.6981   52.1234   67.3625 C   0  0  0  0  0  0  0  0  0  0  0  0
   53.3356   54.3216   67.7350 C   0  0  0  0  0  0  0  0  0  0  0  0
   43.7383   52.1586   64.0801 C   0  0  0  0  0  0  0  0  0  0  0  0
   51.3645   52.5483   67.0452 C   0  0  0  0  0  0  0  0  0  0  0  0
   50.2522   51.5564   66.8805 C   0  0  0  0  0  0  0  0  0  0  0  0
   52.0397   54.7755   67.3687 C   0  0  0  0  0  0  0  0  0  0  0  0
   43.8989   54.4331   64.7488 C   0  0  0  0  0  0  0  0  0  0  0  0
   47.9380   50.8967   67.2491 C   0  0  0  0  0  0  0  0  0  0  0  0
   44.2350   53.1377   64.9961 C   0  0  0  0  0  0  0  0  0  0  0  0
   49.4959   49.2970   66.3918 C   0  0  0  0  0  0  0  0  0  0  0  0
   51.7017   56.2106   67.4066 C   0  0  0  0  0  0  0  0  0  0  0  0
   45.9218   51.7345   66.2383 C   0  0  0  0  0  0  0  0  0  0  0  0
   44.2005   55.5086   65.7880 C   0  0  0  0  0  0  0  0  0  0  0  0
   52.3896   58.7860   69.7023 C   0  0  0  0  0  0  0  0  0  0  0  0
   46.5393   51.2492   67.5738 C   0  0  0  0  0  0  0  0  0  0  0  0
   51.9903   58.2758   68.3424 C   0  0  0  0  0  0  0  0  0  0  0  0
   49.8646   47.5695   65.8375 Cl  0  0  0  0  0  0  0  0  0  0  0  0
   43.0700   55.7303   63.1678 H   0  0  0  0  0  0  0  0  0  0  0  0
   50.1189   54.2227   66.6241 H   0  0  0  0  0  0  0  0  0  0  0  0
   48.7657   52.8627   67.5798 H   0  0  0  0  0  0  0  0  0  0  0  0
   51.4689   49.8904   66.1637 H   0  0  0  0  0  0  0  0  0  0  0  0
   47.3817   48.8631   66.7850 H   0  0  0  0  0  0  0  0  0  0  0  0
   42.6049   54.0415   61.6276 H   0  0  0  0  0  0  0  0  0  0  0  0
   52.9563   51.0796   67.2185 H   0  0  0  0  0  0  0  0  0  0  0  0
   53.9692   55.1708   67.9795 H   0  0  0  0  0  0  0  0  0  0  0  0
   43.9945   51.1298   64.2675 H   0  0  0  0  0  0  0  0  0  0  0  0
   43.4877   55.4898   66.6205 H   0  0  0  0  0  0  0  0  0  0  0  0
   45.1714   55.3936   66.2722 H   0  0  0  0  0  0  0  0  0  0  0  0
   44.1047   56.4133   65.1889 H   0  0  0  0  0  0  0  0  0  0  0  0
   53.4755   58.9437   69.7360 H   0  0  0  0  0  0  0  0  0  0  0  0
   51.8653   59.7358   69.8310 H   0  0  0  0  0  0  0  0  0  0  0  0
   51.9792   58.2233   70.5440 H   0  0  0  0  0  0  0  0  0  0  0  0
   46.0327   50.3677   67.9993 H   0  0  0  0  0  0  0  0  0  0  0  0
   46.4599   51.9776   68.3817 H   0  0  0  0  0  0  0  0  0  0  0  0
   52.6180   58.8490   67.6490 H   0  0  0  0  0  0  0  0  0  0  0  0
   50.9436   58.5327   68.2028 H   0  0  0  0  0  0  0  0  0  0  0  0
   44.8793   53.3076   67.0340 H   0  0  0  0  0  0  0  0  0  0  0  0
  1 12  1  0  0  0  0
  1 19  1  0  0  0  0
  1 30  1  0  0  0  0
  4 16  1  0  0  0  0
  4 18  1  0  0  0  0
  4 31  1  0  0  0  0
  7 17  1  0  0  0  0
  7 20  1  0  0  0  0
  7 32  1  0  0  0  0
  8 49  1  0  0  0  0
 10 17  1  0  0  0  0
 10 22  1  0  0  0  0
 10 33  1  0  0  0  0
 11 20  1  0  0  0  0
 11 22  1  0  0  0  0
 11 34  1  0  0  0  0
  2 12  1  0  0  0  0
 12 35  1  0  0  0  0
  5 13  1  0  0  0  0
 13 16  1  0  0  0  0
 13 36  1  0  0  0  0
  5 14  1  0  0  0  0
 14 18  1  0  0  0  0
 14 37  1  0  0  0  0
  2 15  1  0  0  0  0
 15 21  1  0  0  0  0
 15 38  1  0  0  0  0
 16 17  1  0  0  0  0
 18 23  1  0  0  0  0
 19 21  1  0  0  0  0
 19 25  1  0  0  0  0
 20 27  1  0  0  0  0
  8 21  1  0  0  0  0
 22 29  1  0  0  0  0
  3 23  1  0  0  0  0
  9 23  1  0  0  0  0
  6 24  1  0  0  0  0
  8 24  1  0  0  0  0
 24 27  1  0  0  0  0
 25 39  1  0  0  0  0
 25 40  1  0  0  0  0
 25 41  1  0  0  0  0
 26 28  1  0  0  0  0
 26 42  1  0  0  0  0
 26 43  1  0  0  0  0
 26 44  1  0  0  0  0
 27 45  1  0  0  0  0
 27 46  1  0  0  0  0
  9 28  1  0  0  0  0
 28 47  1  0  0  0  0
 28 48  1  0  0  0  0
M  END
>  <pdb_header>
REMARK   1 CREATED WITH MDTraj 1.9.4, 2020-08-14
CRYST1   96.877   96.877   96.877  90.00  90.00  90.00 P 1           1 


$$$$
EN300-1425849-charged-boronic_esterbackwards
  PyMOL2.3          3D                             0

 44 46  0  0  0  0  0  0  0  0999 V2000
   43.5392   54.7110   62.5315 C   0  0  0  0  0  0  0  0  0  0  0  0
   44.0652   52.5469   61.6330 N   0  0  0  0  0  0  0  0  0  0  0  0
   46.8616   51.4605   64.5685 O   0  0  0  0  0  0  0  0  0  0  0  0
   48.9825   51.0398   67.0967 C   0  0  0  0  0  0  0  0  0  0  0  0
   53.4242   50.8177   68.4471 N   0  0  0  0  0  0  0  0  0  0  0  0
   49.9086   48.9424   66.6062 C   0  0  0  0  0  0  0  0  0  0  0  0
   53.1519   51.9216   67.7300 N   0  0  0  0  0  0  0  0  0  0  0  0
   47.5284   49.1233   66.6621 C   0  0  0  0  0  0  0  0  0  0  0  0
   45.0052   52.5943   65.2716 N   0  0  0  0  0  0  0  0  0  0  0  0
   43.6842   53.7957   61.4710 C   0  0  0  0  0  0  0  0  0  0  0  0
   52.3168   50.0616   68.4168 C   0  0  0  0  0  0  0  0  0  0  0  0
   44.4332   52.2077   62.9166 C   0  0  0  0  0  0  0  0  0  0  0  0
   50.1053   50.2251   67.1068 C   0  0  0  0  0  0  0  0  0  0  0  0
   51.4193   50.6720   67.4703 C   0  0  0  0  0  0  0  0  0  0  0  0
   43.8782   54.2810   63.8660 C   0  0  0  0  0  0  0  0  0  0  0  0
   47.6916   50.4649   66.9854 C   0  0  0  0  0  0  0  0  0  0  0  0
   44.4792   53.0186   64.0326 C   0  0  0  0  0  0  0  0  0  0  0  0
   48.6964   48.3970   66.3408 C   0  0  0  0  0  0  0  0  0  0  0  0
   51.9860   51.8337   67.0176 C   0  0  0  0  0  0  0  0  0  0  0  0
   46.0908   51.7565   65.5101 C   0  0  0  0  0  0  0  0  0  0  0  0
   43.5793   55.1992   64.9679 C   0  0  0  0  0  0  0  0  0  0  0  0
   54.0374   53.0839   67.6584 C   0  0  0  0  0  0  0  0  0  0  0  0
   46.5273   51.4592   66.9899 C   0  0  0  0  0  0  0  0  0  0  0  0
   51.5359   52.6750   65.8362 C   0  0  0  0  0  0  0  0  0  0  0  0
   48.6297   46.7620   65.7562 Cl  0  0  0  0  0  0  0  0  0  0  0  0
   52.5174   52.9203   64.9306 F   0  0  0  0  0  0  0  0  0  0  0  0
   51.1066   53.8874   66.2852 F   0  0  0  0  0  0  0  0  0  0  0  0
   43.1732   55.7133   62.2950 H   0  0  0  0  0  0  0  0  0  0  0  0
   49.0801   52.1101   67.2555 H   0  0  0  0  0  0  0  0  0  0  0  0
   50.7869   48.3238   66.4523 H   0  0  0  0  0  0  0  0  0  0  0  0
   46.5210   48.7300   66.6161 H   0  0  0  0  0  0  0  0  0  0  0  0
   43.3408   54.0617   60.4677 H   0  0  0  0  0  0  0  0  0  0  0  0
   52.2523   49.0332   68.7725 H   0  0  0  0  0  0  0  0  0  0  0  0
   44.9274   51.2379   62.9874 H   0  0  0  0  0  0  0  0  0  0  0  0
   44.4600   55.8289   65.1424 H   0  0  0  0  0  0  0  0  0  0  0  0
   42.7543   55.8868   64.7352 H   0  0  0  0  0  0  0  0  0  0  0  0
   43.4461   54.6832   65.9175 H   0  0  0  0  0  0  0  0  0  0  0  0
   54.0542   53.4489   66.6322 H   0  0  0  0  0  0  0  0  0  0  0  0
   53.5644   53.8062   68.3366 H   0  0  0  0  0  0  0  0  0  0  0  0
   55.0705   52.8120   67.9018 H   0  0  0  0  0  0  0  0  0  0  0  0
   45.6861   51.0354   67.5500 H   0  0  0  0  0  0  0  0  0  0  0  0
   46.7266   52.3907   67.5245 H   0  0  0  0  0  0  0  0  0  0  0  0
   50.7047   52.1809   65.3092 H   0  0  0  0  0  0  0  0  0  0  0  0
   44.3317   52.6790   66.0265 H   0  0  0  0  0  0  0  0  0  0  0  0
  1 10  1  0  0  0  0
  1 15  1  0  0  0  0
  1 28  1  0  0  0  0
  4 13  1  0  0  0  0
  4 16  1  0  0  0  0
  4 29  1  0  0  0  0
  5  7  1  0  0  0  0
  6 13  1  0  0  0  0
  6 18  1  0  0  0  0
  6 30  1  0  0  0  0
  8 16  1  0  0  0  0
  8 18  1  0  0  0  0
  8 31  1  0  0  0  0
  9 44  1  0  0  0  0
  2 10  1  0  0  0  0
 10 32  1  0  0  0  0
  5 11  1  0  0  0  0
 11 14  1  0  0  0  0
 11 33  1  0  0  0  0
  2 12  1  0  0  0  0
 12 17  1  0  0  0  0
 12 34  1  0  0  0  0
 13 14  1  0  0  0  0
 14 19  1  0  0  0  0
 15 17  1  0  0  0  0
 15 21  1  0  0  0  0
 16 23  1  0  0  0  0
  9 17  1  0  0  0  0
 18 25  1  0  0  0  0
  7 19  1  0  0  0  0
 19 24  1  0  0  0  0
  3 20  1  0  0  0  0
  9 20  1  0  0  0  0
 20 23  1  0  0  0  0
 21 35  1  0  0  0  0
 21 36  1  0  0  0  0
 21 37  1  0  0  0  0
  7 22  1  0  0  0  0
 22 38  1  0  0  0  0
 22 39  1  0  0  0  0
 22 40  1  0  0  0  0
 23 41  1  0  0  0  0
 23 42  1  0  0  0  0
 24 26  1  0  0  0  0
 24 27  1  0  0  0  0
 24 43  1  0  0  0  0
M  END
>  <pdb_header>
REMARK   1 CREATED WITH MDTraj 1.9.4, 2020-08-14
CRYST1   96.949   96.949   96.949  90.00  90.00  90.00 P 1           1 


$$$$
EN300-364488-charged-boronic_esterbackwards
  PyMOL2.3          3D                             0

 51 54  0  0  0  0  0  0  0  0999 V2000
   53.5201   53.5724   66.2986 C   0  0  0  0  0  0  0  0  0  0  0  0
   44.0173   53.0573   63.8090 N   0  0  0  0  0  0  0  0  0  0  0  0
   47.3848   51.2113   65.5400 O   0  0  0  0  0  0  0  0  0  0  0  0
   54.2187   51.7696   64.8757 C   0  0  0  0  0  0  0  0  0  0  0  0
   47.0064   53.2983   66.1718 N   0  0  0  0  0  0  0  0  0  0  0  0
   54.6542   54.3180   65.8718 C   0  0  0  0  0  0  0  0  0  0  0  0
   55.3394   52.4773   64.5223 C   0  0  0  0  0  0  0  0  0  0  0  0
   44.2751   55.2618   64.6506 C   0  0  0  0  0  0  0  0  0  0  0  0
   51.0469   51.9878   66.5580 C   0  0  0  0  0  0  0  0  0  0  0  0
   52.3032   49.9720   66.2774 C   0  0  0  0  0  0  0  0  0  0  0  0
   49.9085   49.8345   66.8806 C   0  0  0  0  0  0  0  0  0  0  0  0
   43.6523   54.2950   63.7999 C   0  0  0  0  0  0  0  0  0  0  0  0
   45.1567   52.7441   64.5779 C   0  0  0  0  0  0  0  0  0  0  0  0
   53.3482   52.2290   65.8741 C   0  0  0  0  0  0  0  0  0  0  0  0
   52.2586   51.3442   66.2561 C   0  0  0  0  0  0  0  0  0  0  0  0
   55.6482   53.7292   65.0350 C   0  0  0  0  0  0  0  0  0  0  0  0
   45.4240   54.9409   65.4037 C   0  0  0  0  0  0  0  0  0  0  0  0
   49.9705   51.2686   66.9939 C   0  0  0  0  0  0  0  0  0  0  0  0
   45.8961   53.6569   65.3731 C   0  0  0  0  0  0  0  0  0  0  0  0
   51.1523   49.1683   66.4953 C   0  0  0  0  0  0  0  0  0  0  0  0
   47.6972   52.1005   66.3184 C   0  0  0  0  0  0  0  0  0  0  0  0
   57.8681   53.9989   63.7212 C   0  0  0  0  0  0  0  0  0  0  0  0
   56.9586   54.4521   64.8632 C   0  0  0  0  0  0  0  0  0  0  0  0
   58.3381   55.4289   63.5253 C   0  0  0  0  0  0  0  0  0  0  0  0
   57.0208   55.8746   64.3517 C   0  0  0  0  0  0  0  0  0  0  0  0
   46.1403   55.9668   66.2817 C   0  0  0  0  0  0  0  0  0  0  0  0
   48.6865   51.9290   67.4084 C   0  0  0  0  0  0  0  0  0  0  0  0
   51.2757   47.4235   66.2267 Cl  0  0  0  0  0  0  0  0  0  0  0  0
   59.5222   55.7970   64.0549 F   0  0  0  0  0  0  0  0  0  0  0  0
   58.3280   55.7496   62.2294 F   0  0  0  0  0  0  0  0  0  0  0  0
   57.3232   56.8285   65.2694 F   0  0  0  0  0  0  0  0  0  0  0  0
   55.9365   56.1837   63.6302 F   0  0  0  0  0  0  0  0  0  0  0  0
   52.9649   54.0664   67.0902 H   0  0  0  0  0  0  0  0  0  0  0  0
   54.0325   50.8363   64.3579 H   0  0  0  0  0  0  0  0  0  0  0  0
   54.7264   55.3475   66.1867 H   0  0  0  0  0  0  0  0  0  0  0  0
   55.9973   52.0154   63.7892 H   0  0  0  0  0  0  0  0  0  0  0  0
   43.8962   56.2753   64.7290 H   0  0  0  0  0  0  0  0  0  0  0  0
   50.8687   53.0556   66.5156 H   0  0  0  0  0  0  0  0  0  0  0  0
   53.2298   49.4685   66.0149 H   0  0  0  0  0  0  0  0  0  0  0  0
   49.0217   49.3563   67.2755 H   0  0  0  0  0  0  0  0  0  0  0  0
   42.7095   54.6659   63.3979 H   0  0  0  0  0  0  0  0  0  0  0  0
   45.4336   51.7002   64.5416 H   0  0  0  0  0  0  0  0  0  0  0  0
   58.6282   53.2685   64.0238 H   0  0  0  0  0  0  0  0  0  0  0  0
   57.4820   53.6179   62.7667 H   0  0  0  0  0  0  0  0  0  0  0  0
   57.4324   54.4980   65.8555 H   0  0  0  0  0  0  0  0  0  0  0  0
   45.3745   56.7111   66.5114 H   0  0  0  0  0  0  0  0  0  0  0  0
   46.5185   55.5598   67.2215 H   0  0  0  0  0  0  0  0  0  0  0  0
   46.9581   56.3291   65.6494 H   0  0  0  0  0  0  0  0  0  0  0  0
   48.2108   51.3981   68.2384 H   0  0  0  0  0  0  0  0  0  0  0  0
   48.9263   52.9059   67.8236 H   0  0  0  0  0  0  0  0  0  0  0  0
   47.4917   54.1016   66.5654 H   0  0  0  0  0  0  0  0  0  0  0  0
  1  6  1  0  0  0  0
  1 14  1  0  0  0  0
  1 33  1  0  0  0  0
  4  7  1  0  0  0  0
  4 14  1  0  0  0  0
  4 34  1  0  0  0  0
  5 51  1  0  0  0  0
  6 16  1  0  0  0  0
  6 35  1  0  0  0  0
  7 16  1  0  0  0  0
  7 36  1  0  0  0  0
  8 12  1  0  0  0  0
  8 17  1  0  0  0  0
  8 37  1  0  0  0  0
  9 15  1  0  0  0  0
  9 18  1  0  0  0  0
  9 38  1  0  0  0  0
 10 15  1  0  0  0  0
 10 20  1  0  0  0  0
 10 39  1  0  0  0  0
 11 18  1  0  0  0  0
 11 20  1  0  0  0  0
 11 40  1  0  0  0  0
  2 12  1  0  0  0  0
 12 41  1  0  0  0  0
  2 13  1  0  0  0  0
 13 19  1  0  0  0  0
 13 42  1  0  0  0  0
 14 15  1  0  0  0  0
 16 23  1  0  0  0  0
 17 19  1  0  0  0  0
 17 26  1  0  0  0  0
 18 27  1  0  0  0  0
  5 19  1  0  0  0  0
 20 28  1  0  0  0  0
  3 21  1  0  0  0  0
  5 21  1  0  0  0  0
 21 27  1  0  0  0  0
 22 23  1  0  0  0  0
 22 24  1  0  0  0  0
 22 43  1  0  0  0  0
 22 44  1  0  0  0  0
 23 25  1  0  0  0  0
 23 45  1  0  0  0  0
 24 25  1  0  0  0  0
 24 29  1  0  0  0  0
 24 30  1  0  0  0  0
 25 31  1  0  0  0  0
 25 32  1  0  0  0  0
 26 46  1  0  0  0  0
 26 47  1  0  0  0  0
 26 48  1  0  0  0  0
 27 49  1  0  0  0  0
 27 50  1  0  0  0  0
M  END
>  <pdb_header>
REMARK   1 CREATED WITH MDTraj 1.9.4, 2020-08-14
CRYST1   96.965   96.965   96.965  90.00  90.00  90.00 P 1           1 


$$$$
EN300-148395-charged-boronic_esterbackwards
  PyMOL2.3          3D                             0

 41 43  0  0  0  0  0  0  0  0999 V2000
   52.3777   51.3664   67.3901 C   0  0  0  0  0  0  0  0  0  0  0  0
   45.3713   45.4658   71.8604 N   0  0  0  0  0  0  0  0  0  0  0  0
   47.6479   45.6747   68.1942 O   0  0  0  0  0  0  0  0  0  0  0  0
   50.6232   51.3425   69.3770 S   0  0  0  0  0  0  0  0  0  0  0  0
   52.7836   52.4681   68.2865 C   0  0  0  0  0  0  0  0  0  0  0  0
   45.4430   46.3435   68.1848 N   0  0  0  0  0  0  0  0  0  0  0  0
   43.0919   45.4186   70.9621 C   0  0  0  0  0  0  0  0  0  0  0  0
   49.1731   49.1760   67.4962 C   0  0  0  0  0  0  0  0  0  0  0  0
   51.0549   48.9437   66.0321 C   0  0  0  0  0  0  0  0  0  0  0  0
   49.2122   47.4561   65.7582 C   0  0  0  0  0  0  0  0  0  0  0  0
   44.0161   45.2527   71.9635 C   0  0  0  0  0  0  0  0  0  0  0  0
   45.8013   45.8468   70.5837 C   0  0  0  0  0  0  0  0  0  0  0  0
   50.4620   49.5714   67.1601 C   0  0  0  0  0  0  0  0  0  0  0  0
   43.5163   45.8339   69.6632 C   0  0  0  0  0  0  0  0  0  0  0  0
   48.5016   48.1250   66.8310 C   0  0  0  0  0  0  0  0  0  0  0  0
   44.9489   45.9793   69.4586 C   0  0  0  0  0  0  0  0  0  0  0  0
   50.4485   47.8543   65.3585 C   0  0  0  0  0  0  0  0  0  0  0  0
   51.2127   50.7088   67.8172 C   0  0  0  0  0  0  0  0  0  0  0  0
   51.9091   52.5029   69.3852 C   0  0  0  0  0  0  0  0  0  0  0  0
   46.7655   46.4502   67.8492 C   0  0  0  0  0  0  0  0  0  0  0  0
   42.5353   45.8263   68.5028 C   0  0  0  0  0  0  0  0  0  0  0  0
   47.0501   47.7407   67.1038 C   0  0  0  0  0  0  0  0  0  0  0  0
   51.8990   53.5403   70.4808 C   0  0  0  0  0  0  0  0  0  0  0  0
   51.2061   47.1120   63.9353 Cl  0  0  0  0  0  0  0  0  0  0  0  0
   51.7885   52.8340   71.6430 F   0  0  0  0  0  0  0  0  0  0  0  0
   53.0217   54.2697   70.5672 F   0  0  0  0  0  0  0  0  0  0  0  0
   50.7573   54.2364   70.2992 F   0  0  0  0  0  0  0  0  0  0  0  0
   52.9207   51.1457   66.4754 H   0  0  0  0  0  0  0  0  0  0  0  0
   53.5056   53.2198   67.9904 H   0  0  0  0  0  0  0  0  0  0  0  0
   42.0699   45.2159   71.2719 H   0  0  0  0  0  0  0  0  0  0  0  0
   48.7310   49.5663   68.4043 H   0  0  0  0  0  0  0  0  0  0  0  0
   52.0172   49.2477   65.6280 H   0  0  0  0  0  0  0  0  0  0  0  0
   48.7124   46.6844   65.1836 H   0  0  0  0  0  0  0  0  0  0  0  0
   43.6024   44.9225   72.9047 H   0  0  0  0  0  0  0  0  0  0  0  0
   46.8702   46.0199   70.4416 H   0  0  0  0  0  0  0  0  0  0  0  0
   42.7886   44.9770   67.8660 H   0  0  0  0  0  0  0  0  0  0  0  0
   41.4666   45.7274   68.7236 H   0  0  0  0  0  0  0  0  0  0  0  0
   42.6558   46.7456   67.9240 H   0  0  0  0  0  0  0  0  0  0  0  0
   46.4815   48.6153   67.4134 H   0  0  0  0  0  0  0  0  0  0  0  0
   46.5357   47.6101   66.1537 H   0  0  0  0  0  0  0  0  0  0  0  0
   44.7125   46.7520   67.6037 H   0  0  0  0  0  0  0  0  0  0  0  0
  1  5  1  0  0  0  0
  1 18  1  0  0  0  0
  1 28  1  0  0  0  0
  5 19  1  0  0  0  0
  5 29  1  0  0  0  0
  6 41  1  0  0  0  0
  7 11  1  0  0  0  0
  7 14  1  0  0  0  0
  7 30  1  0  0  0  0
  8 13  1  0  0  0  0
  8 15  1  0  0  0  0
  8 31  1  0  0  0  0
  9 13  1  0  0  0  0
  9 17  1  0  0  0  0
  9 32  1  0  0  0  0
 10 15  1  0  0  0  0
 10 17  1  0  0  0  0
 10 33  1  0  0  0  0
  2 11  1  0  0  0  0
 11 34  1  0  0  0  0
  2 12  1  0  0  0  0
 12 16  1  0  0  0  0
 12 35  1  0  0  0  0
 13 18  1  0  0  0  0
 14 16  1  0  0  0  0
 14 21  1  0  0  0  0
 15 22  1  0  0  0  0
  6 16  1  0  0  0  0
 17 24  1  0  0  0  0
  4 18  1  0  0  0  0
  4 19  1  0  0  0  0
 19 23  1  0  0  0  0
  3 20  1  0  0  0  0
  6 20  1  0  0  0  0
 20 22  1  0  0  0  0
 21 36  1  0  0  0  0
 21 37  1  0  0  0  0
 21 38  1  0  0  0  0
 22 39  1  0  0  0  0
 22 40  1  0  0  0  0
 23 25  1  0  0  0  0
 23 26  1  0  0  0  0
 23 27  1  0  0  0  0
M  END
>  <pdb_header>
REMARK   1 CREATED WITH MDTraj 1.9.4, 2020-08-14
CRYST1   96.807   96.807   96.807  90.00  90.00  90.00 P 1           1 


$$$$
EN300-122703-charged-boronic_esterbackwards
  PyMOL2.3          3D                             0

 41 43  0  0  0  0  0  0  0  0999 V2000
   51.6402   53.1524   65.4730 C   0  0  0  0  0  0  0  0  0  0  0  0
   44.8190   52.4466   61.4185 N   0  0  0  0  0  0  0  0  0  0  0  0
   44.4142   50.9342   65.5429 O   0  0  0  0  0  0  0  0  0  0  0  0
   52.1572   54.3942   65.0963 C   0  0  0  0  0  0  0  0  0  0  0  0
   45.4018   52.9035   65.0552 N   0  0  0  0  0  0  0  0  0  0  0  0
   50.3109   54.5854   66.3740 O   0  0  0  0  0  0  0  0  0  0  0  0
   43.8478   54.6195   62.1385 C   0  0  0  0  0  0  0  0  0  0  0  0
   48.3932   52.3639   66.8768 C   0  0  0  0  0  0  0  0  0  0  0  0
   50.2774   50.8610   66.7318 C   0  0  0  0  0  0  0  0  0  0  0  0
   47.9706   50.0035   67.2118 C   0  0  0  0  0  0  0  0  0  0  0  0
   44.2024   53.6738   61.1541 C   0  0  0  0  0  0  0  0  0  0  0  0
   45.0122   52.1956   62.7317 C   0  0  0  0  0  0  0  0  0  0  0  0
   49.7837   52.1749   66.6755 C   0  0  0  0  0  0  0  0  0  0  0  0
   44.2468   54.4165   63.4683 C   0  0  0  0  0  0  0  0  0  0  0  0
   47.5144   51.2930   67.1109 C   0  0  0  0  0  0  0  0  0  0  0  0
   44.8077   53.1951   63.7545 C   0  0  0  0  0  0  0  0  0  0  0  0
   49.3262   49.7683   66.9797 C   0  0  0  0  0  0  0  0  0  0  0  0
   50.5963   53.3138   66.2454 C   0  0  0  0  0  0  0  0  0  0  0  0
   51.2799   55.2925   65.6491 C   0  0  0  0  0  0  0  0  0  0  0  0
   45.3023   51.7352   65.8815 C   0  0  0  0  0  0  0  0  0  0  0  0
   44.0854   55.5379   64.5322 C   0  0  0  0  0  0  0  0  0  0  0  0
   51.3099   56.7982   65.5112 C   0  0  0  0  0  0  0  0  0  0  0  0
   46.0306   51.5750   67.1871 C   0  0  0  0  0  0  0  0  0  0  0  0
   50.0585   48.2377   67.0688 Cl  0  0  0  0  0  0  0  0  0  0  0  0
   52.1756   52.2662   65.1458 H   0  0  0  0  0  0  0  0  0  0  0  0
   52.9974   54.5943   64.4338 H   0  0  0  0  0  0  0  0  0  0  0  0
   43.2965   55.5219   61.8786 H   0  0  0  0  0  0  0  0  0  0  0  0
   48.0457   53.3897   66.9671 H   0  0  0  0  0  0  0  0  0  0  0  0
   51.3187   50.6524   66.5165 H   0  0  0  0  0  0  0  0  0  0  0  0
   47.3259   49.1614   67.4321 H   0  0  0  0  0  0  0  0  0  0  0  0
   44.0588   53.8847   60.0883 H   0  0  0  0  0  0  0  0  0  0  0  0
   45.3159   51.2031   63.0075 H   0  0  0  0  0  0  0  0  0  0  0  0
   43.0109   55.7133   64.4421 H   0  0  0  0  0  0  0  0  0  0  0  0
   44.3123   55.2277   65.5522 H   0  0  0  0  0  0  0  0  0  0  0  0
   44.7324   56.3957   64.3411 H   0  0  0  0  0  0  0  0  0  0  0  0
   50.9410   57.2122   66.4527 H   0  0  0  0  0  0  0  0  0  0  0  0
   52.3689   57.0987   65.5736 H   0  0  0  0  0  0  0  0  0  0  0  0
   50.8408   57.2987   64.6582 H   0  0  0  0  0  0  0  0  0  0  0  0
   45.5498   50.8731   67.8717 H   0  0  0  0  0  0  0  0  0  0  0  0
   45.9147   52.5501   67.6435 H   0  0  0  0  0  0  0  0  0  0  0  0
   45.9877   53.6092   65.4922 H   0  0  0  0  0  0  0  0  0  0  0  0
  1  4  1  0  0  0  0
  1 18  1  0  0  0  0
  1 25  1  0  0  0  0
  4 19  1  0  0  0  0
  4 26  1  0  0  0  0
  5 41  1  0  0  0  0
  7 11  1  0  0  0  0
  7 14  1  0  0  0  0
  7 27  1  0  0  0  0
  8 13  1  0  0  0  0
  8 15  1  0  0  0  0
  8 28  1  0  0  0  0
  9 13  1  0  0  0  0
  9 17  1  0  0  0  0
  9 29  1  0  0  0  0
 10 15  1  0  0  0  0
 10 17  1  0  0  0  0
 10 30  1  0  0  0  0
  2 11  1  0  0  0  0
 11 31  1  0  0  0  0
  2 12  1  0  0  0  0
 12 16  1  0  0  0  0
 12 32  1  0  0  0  0
 13 18  1  0  0  0  0
 14 16  1  0  0  0  0
 14 21  1  0  0  0  0
 15 23  1  0  0  0  0
  5 16  1  0  0  0  0
 17 24  1  0  0  0  0
  6 18  1  0  0  0  0
  6 19  1  0  0  0  0
 19 22  1  0  0  0  0
  3 20  1  0  0  0  0
  5 20  1  0  0  0  0
 20 23  1  0  0  0  0
 21 33  1  0  0  0  0
 21 34  1  0  0  0  0
 21 35  1  0  0  0  0
 22 36  1  0  0  0  0
 22 37  1  0  0  0  0
 22 38  1  0  0  0  0
 23 39  1  0  0  0  0
 23 40  1  0  0  0  0
M  END
>  <pdb_header>
REMARK   1 CREATED WITH MDTraj 1.9.4, 2020-08-14
CRYST1   96.894   96.894   96.894  90.00  90.00  90.00 P 1           1 


$$$$
EN300-1704613-charged-boronic_esterbackwards
  PyMOL2.3          3D                             0

 48 50  0  0  0  0  0  0  0  0999 V2000
   50.1265   47.9654   65.6926 C   0  0  0  0  0  0  0  0  0  0  0  0
   43.4643   52.2784   60.9888 N   0  0  0  0  0  0  0  0  0  0  0  0
   40.6195   50.2255   63.0651 O   0  0  0  0  0  0  0  0  0  0  0  0
   49.6465   48.8751   66.7004 C   0  0  0  0  0  0  0  0  0  0  0  0
   41.9649   51.6247   64.3127 N   0  0  0  0  0  0  0  0  0  0  0  0
   49.2507   47.0132   65.1307 C   0  0  0  0  0  0  0  0  0  0  0  0
   48.2895   48.7853   67.0409 C   0  0  0  0  0  0  0  0  0  0  0  0
   47.9541   46.8778   65.5715 C   0  0  0  0  0  0  0  0  0  0  0  0
   43.3415   54.3443   62.2322 C   0  0  0  0  0  0  0  0  0  0  0  0
   42.8297   48.6831   65.5593 C   0  0  0  0  0  0  0  0  0  0  0  0
   43.1210   46.4770   66.4562 C   0  0  0  0  0  0  0  0  0  0  0  0
   40.9364   47.4253   66.1964 C   0  0  0  0  0  0  0  0  0  0  0  0
   43.5977   53.6164   61.0552 C   0  0  0  0  0  0  0  0  0  0  0  0
   42.9550   51.7215   62.1262 C   0  0  0  0  0  0  0  0  0  0  0  0
   47.4696   47.7605   66.4931 C   0  0  0  0  0  0  0  0  0  0  0  0
   43.6968   47.5735   65.9099 C   0  0  0  0  0  0  0  0  0  0  0  0
   42.7990   53.7638   63.3579 C   0  0  0  0  0  0  0  0  0  0  0  0
   41.4880   48.6483   65.6673 C   0  0  0  0  0  0  0  0  0  0  0  0
   42.5990   52.3583   63.2582 C   0  0  0  0  0  0  0  0  0  0  0  0
   41.7773   46.3907   66.5979 C   0  0  0  0  0  0  0  0  0  0  0  0
   45.1218   47.7674   65.7303 C   0  0  0  0  0  0  0  0  0  0  0  0
   46.0032   47.7027   66.8223 C   0  0  0  0  0  0  0  0  0  0  0  0
   41.0742   50.5722   64.1249 C   0  0  0  0  0  0  0  0  0  0  0  0
   42.3993   54.5395   64.5634 C   0  0  0  0  0  0  0  0  0  0  0  0
   40.5975   49.7724   65.3285 C   0  0  0  0  0  0  0  0  0  0  0  0
   45.5788   47.6893   68.3110 C   0  0  0  0  0  0  0  0  0  0  0  0
   41.0039   45.0054   67.5208 Cl  0  0  0  0  0  0  0  0  0  0  0  0
   45.1188   46.4548   68.6292 F   0  0  0  0  0  0  0  0  0  0  0  0
   46.5793   47.9754   69.1757 F   0  0  0  0  0  0  0  0  0  0  0  0
   44.6041   48.6517   68.4617 F   0  0  0  0  0  0  0  0  0  0  0  0
   51.1536   48.0890   65.3739 H   0  0  0  0  0  0  0  0  0  0  0  0
   50.3129   49.6069   67.1488 H   0  0  0  0  0  0  0  0  0  0  0  0
   49.5718   46.2265   64.4530 H   0  0  0  0  0  0  0  0  0  0  0  0
   47.8417   49.5049   67.7266 H   0  0  0  0  0  0  0  0  0  0  0  0
   47.3493   46.0610   65.1720 H   0  0  0  0  0  0  0  0  0  0  0  0
   43.6447   55.3857   62.2377 H   0  0  0  0  0  0  0  0  0  0  0  0
   43.2841   49.5170   65.0425 H   0  0  0  0  0  0  0  0  0  0  0  0
   43.6758   45.6508   66.8886 H   0  0  0  0  0  0  0  0  0  0  0  0
   39.8742   47.2231   66.3121 H   0  0  0  0  0  0  0  0  0  0  0  0
   44.1030   53.9830   60.1607 H   0  0  0  0  0  0  0  0  0  0  0  0
   42.9505   50.6434   62.0655 H   0  0  0  0  0  0  0  0  0  0  0  0
   45.5695   47.9233   64.7588 H   0  0  0  0  0  0  0  0  0  0  0  0
   41.4507   54.1725   64.9982 H   0  0  0  0  0  0  0  0  0  0  0  0
   43.2326   54.4965   65.2607 H   0  0  0  0  0  0  0  0  0  0  0  0
   42.2251   55.5635   64.2148 H   0  0  0  0  0  0  0  0  0  0  0  0
   39.5632   49.4399   65.1927 H   0  0  0  0  0  0  0  0  0  0  0  0
   40.4405   50.4084   66.2047 H   0  0  0  0  0  0  0  0  0  0  0  0
   42.1522   51.9770   65.2480 H   0  0  0  0  0  0  0  0  0  0  0  0
  1  4  1  0  0  0  0
  1  6  1  0  0  0  0
  1 31  1  0  0  0  0
  4  7  1  0  0  0  0
  4 32  1  0  0  0  0
  5 48  1  0  0  0  0
  6  8  1  0  0  0  0
  6 33  1  0  0  0  0
  7 15  1  0  0  0  0
  7 34  1  0  0  0  0
  8 15  1  0  0  0  0
  8 35  1  0  0  0  0
  9 13  1  0  0  0  0
  9 17  1  0  0  0  0
  9 36  1  0  0  0  0
 10 16  1  0  0  0  0
 10 18  1  0  0  0  0
 10 37  1  0  0  0  0
 11 16  1  0  0  0  0
 11 20  1  0  0  0  0
 11 38  1  0  0  0  0
 12 18  1  0  0  0  0
 12 20  1  0  0  0  0
 12 39  1  0  0  0  0
  2 13  1  0  0  0  0
 13 40  1  0  0  0  0
  2 14  1  0  0  0  0
 14 19  1  0  0  0  0
 14 41  1  0  0  0  0
 15 22  1  0  0  0  0
 16 21  1  0  0  0  0
 17 19  1  0  0  0  0
 17 24  1  0  0  0  0
 18 25  1  0  0  0  0
  5 19  1  0  0  0  0
 20 27  1  0  0  0  0
 21 22  1  0  0  0  0
 21 42  1  0  0  0  0
 22 26  1  0  0  0  0
  3 23  1  0  0  0  0
  5 23  1  0  0  0  0
 23 25  1  0  0  0  0
 24 43  1  0  0  0  0
 24 44  1  0  0  0  0
 24 45  1  0  0  0  0
 25 46  1  0  0  0  0
 25 47  1  0  0  0  0
 26 28  1  0  0  0  0
 26 29  1  0  0  0  0
 26 30  1  0  0  0  0
M  END
>  <pdb_header>
REMARK   1 CREATED WITH MDTraj 1.9.4, 2020-08-14
CRYST1   96.914   96.914   96.914  90.00  90.00  90.00 P 1           1 


$$$$
EN300-218797-charged-boronic_esterbackwards
  PyMOL2.3          3D                             0

 44 46  0  0  0  0  0  0  0  0999 V2000
   42.5880   52.9790   63.6510 C   0  0  0  0  0  0  0  0  0  0  0  0
   43.8980   51.7490   62.1510 N   0  0  0  0  0  0  0  0  0  0  0  0
   46.5580   50.2990   64.8010 O   0  0  0  0  0  0  0  0  0  0  0  0
   48.6580   49.1990   66.9610 C   0  0  0  0  0  0  0  0  0  0  0  0
   53.6280   49.6690   67.1710 N   0  0  0  0  0  0  0  0  0  0  0  0
   52.3280   53.0190   67.2510 O   0  0  0  0  0  0  0  0  0  0  0  0
   51.1780   50.9490   66.7010 C   0  0  0  0  0  0  0  0  0  0  0  0
   44.4080   50.2790   65.4810 N   0  0  0  0  0  0  0  0  0  0  0  0
   50.0280   47.4590   65.8710 C   0  0  0  0  0  0  0  0  0  0  0  0
   47.6680   47.2990   65.7510 C   0  0  0  0  0  0  0  0  0  0  0  0
   43.0380   52.7490   62.4010 C   0  0  0  0  0  0  0  0  0  0  0  0
   52.4680   48.9790   66.9710 C   0  0  0  0  0  0  0  0  0  0  0  0
   44.3280   50.8790   63.1310 C   0  0  0  0  0  0  0  0  0  0  0  0
   53.5380   51.0390   67.1610 C   0  0  0  0  0  0  0  0  0  0  0  0
   49.9580   48.7690   66.5710 C   0  0  0  0  0  0  0  0  0  0  0  0
   51.2480   49.5390   66.6910 C   0  0  0  0  0  0  0  0  0  0  0  0
   42.9580   52.1390   64.6910 C   0  0  0  0  0  0  0  0  0  0  0  0
   47.5180   48.4490   66.5010 C   0  0  0  0  0  0  0  0  0  0  0  0
   43.9080   51.0590   64.4610 C   0  0  0  0  0  0  0  0  0  0  0  0
   52.3280   51.6890   67.0010 C   0  0  0  0  0  0  0  0  0  0  0  0
   48.8980   46.7890   65.4410 C   0  0  0  0  0  0  0  0  0  0  0  0
   45.7380   49.8790   65.6010 C   0  0  0  0  0  0  0  0  0  0  0  0
   42.4280   52.4390   66.0510 C   0  0  0  0  0  0  0  0  0  0  0  0
   46.1680   48.9790   66.7410 C   0  0  0  0  0  0  0  0  0  0  0  0
   50.9980   53.5990   67.4410 C   0  0  0  0  0  0  0  0  0  0  0  0
   49.1180   45.4290   64.3710 Cl  0  0  0  0  0  0  0  0  0  0  0  0
   50.3780   53.2890   68.6310 F   0  0  0  0  0  0  0  0  0  0  0  0
   51.1880   54.9990   67.4510 F   0  0  0  0  0  0  0  0  0  0  0  0
   42.0680   53.9190   63.7710 H   0  0  0  0  0  0  0  0  0  0  0  0
   48.5480   50.0890   67.5810 H   0  0  0  0  0  0  0  0  0  0  0  0
   50.2780   51.5290   66.5610 H   0  0  0  0  0  0  0  0  0  0  0  0
   50.9980   47.1590   65.4910 H   0  0  0  0  0  0  0  0  0  0  0  0
   46.8080   46.7490   65.3810 H   0  0  0  0  0  0  0  0  0  0  0  0
   42.7980   53.4490   61.6010 H   0  0  0  0  0  0  0  0  0  0  0  0
   52.5080   47.9090   67.1210 H   0  0  0  0  0  0  0  0  0  0  0  0
   44.9980   50.0690   62.8710 H   0  0  0  0  0  0  0  0  0  0  0  0
   54.3580   51.6090   67.5710 H   0  0  0  0  0  0  0  0  0  0  0  0
   42.6780   53.4990   66.2110 H   0  0  0  0  0  0  0  0  0  0  0  0
   41.3280   52.4090   66.0810 H   0  0  0  0  0  0  0  0  0  0  0  0
   42.9180   51.7390   66.7310 H   0  0  0  0  0  0  0  0  0  0  0  0
   45.4980   48.1090   66.7610 H   0  0  0  0  0  0  0  0  0  0  0  0
   46.1280   49.4990   67.7010 H   0  0  0  0  0  0  0  0  0  0  0  0
   50.4080   53.4190   66.5410 H   0  0  0  0  0  0  0  0  0  0  0  0
   43.8680   50.1590   66.3410 H   0  0  0  0  0  0  0  0  0  0  0  0
  1 11  1  0  0  0  0
  1 17  1  0  0  0  0
  1 29  1  0  0  0  0
  4 15  1  0  0  0  0
  4 18  1  0  0  0  0
  4 30  1  0  0  0  0
  7 16  1  0  0  0  0
  7 20  1  0  0  0  0
  7 31  1  0  0  0  0
  8 44  1  0  0  0  0
  9 15  1  0  0  0  0
  9 21  1  0  0  0  0
  9 32  1  0  0  0  0
 10 18  1  0  0  0  0
 10 21  1  0  0  0  0
 10 33  1  0  0  0  0
  2 11  1  0  0  0  0
 11 34  1  0  0  0  0
  5 12  1  0  0  0  0
 12 16  1  0  0  0  0
 12 35  1  0  0  0  0
  2 13  1  0  0  0  0
 13 19  1  0  0  0  0
 13 36  1  0  0  0  0
  5 14  1  0  0  0  0
 14 20  1  0  0  0  0
 14 37  1  0  0  0  0
 15 16  1  0  0  0  0
 17 19  1  0  0  0  0
 17 23  1  0  0  0  0
 18 24  1  0  0  0  0
  8 19  1  0  0  0  0
  6 20  1  0  0  0  0
 21 26  1  0  0  0  0
  3 22  1  0  0  0  0
  8 22  1  0  0  0  0
 22 24  1  0  0  0  0
 23 38  1  0  0  0  0
 23 39  1  0  0  0  0
 23 40  1  0  0  0  0
 24 41  1  0  0  0  0
 24 42  1  0  0  0  0
  6 25  1  0  0  0  0
 25 27  1  0  0  0  0
 25 28  1  0  0  0  0
 25 43  1  0  0  0  0
M  END
>  <pdb_header>
REMARK   1 CREATED WITH MDTraj 1.9.4, 2020-08-14
CRYST1   96.948   96.948   96.948  90.00  90.00  90.00 P 1           1 


$$$$
